(PID.TID 0000.0001) 
(PID.TID 0000.0001) // ======================================================
(PID.TID 0000.0001) //                      MITgcm UV
(PID.TID 0000.0001) //                      =========
(PID.TID 0000.0001) // ======================================================
(PID.TID 0000.0001) // execution environment starting up...
(PID.TID 0000.0001) 
(PID.TID 0000.0001) // MITgcmUV version:  checkpoint66k
(PID.TID 0000.0001) // Build user:        dmenemen
(PID.TID 0000.0001) // Build host:        borgr129
(PID.TID 0000.0001) // Build date:        Tue Sep 26 22:26:38 EDT 2017
(PID.TID 0000.0001) 
(PID.TID 0000.0001) // =======================================================
(PID.TID 0000.0001) // Execution Environment parameter file "eedata"
(PID.TID 0000.0001) // =======================================================
(PID.TID 0000.0001) ># Example "eedata" file
(PID.TID 0000.0001) ># Lines beginning "#" are comments
(PID.TID 0000.0001) ># nTx - No. threads per process in X
(PID.TID 0000.0001) ># nTy - No. threads per process in Y
(PID.TID 0000.0001) > &EEPARMS
(PID.TID 0000.0001) > useCubedSphereExchange=.TRUE.,
(PID.TID 0000.0001) > nTx=1,
(PID.TID 0000.0001) > nTy=1,
(PID.TID 0000.0001) > &
(PID.TID 0000.0001) 
(PID.TID 0000.0001) // =======================================================
(PID.TID 0000.0001) // Computational Grid Specification ( see files "SIZE.h" )
(PID.TID 0000.0001) //                                  ( and "eedata"       )
(PID.TID 0000.0001) // =======================================================
(PID.TID 0000.0001)      nPx =   96 ; /* No. processes in X */
(PID.TID 0000.0001)      nPy =    1 ; /* No. processes in Y */
(PID.TID 0000.0001)      nSx =    1 ; /* No. tiles in X per process */
(PID.TID 0000.0001)      nSy =    1 ; /* No. tiles in Y per process */
(PID.TID 0000.0001)      sNx =   30 ; /* Tile size in X */
(PID.TID 0000.0001)      sNy =   30 ; /* Tile size in Y */
(PID.TID 0000.0001)      OLx =    4 ; /* Tile overlap distance in X */
(PID.TID 0000.0001)      OLy =    4 ; /* Tile overlap distance in Y */
(PID.TID 0000.0001)      nTx =    1 ; /* No. threads in X per process */
(PID.TID 0000.0001)      nTy =    1 ; /* No. threads in Y per process */
(PID.TID 0000.0001)       Nr =   50 ; /* No. levels in the vertical   */
(PID.TID 0000.0001)       Nx = 2880 ; /* Total domain size in X ( = nPx*nSx*sNx ) */
(PID.TID 0000.0001)       Ny =   30 ; /* Total domain size in Y ( = nPy*nSy*sNy ) */
(PID.TID 0000.0001)   nTiles =    1 ; /* Total no. tiles per process ( = nSx*nSy ) */
(PID.TID 0000.0001)   nProcs =   96 ; /* Total no. processes ( = nPx*nPy ) */
(PID.TID 0000.0001) nThreads =    1 ; /* Total no. threads per process ( = nTx*nTy ) */
(PID.TID 0000.0001) usingMPI =    T ; /* Flag used to control whether MPI is in use */
(PID.TID 0000.0001)                   /*  note: To execute a program with MPI calls */
(PID.TID 0000.0001)                   /*  it must be launched appropriately e.g     */
(PID.TID 0000.0001)                   /*  "mpirun -np 64 ......"                    */
(PID.TID 0000.0001) useCoupler=    F ;/* Flag used to control communications with   */
(PID.TID 0000.0001)                   /*  other model components, through a coupler */
(PID.TID 0000.0001) debugMode =    F ; /* print debug msg. (sequence of S/R calls)  */
(PID.TID 0000.0001) printMapIncludesZeros=    F ; /* print zeros in Std.Output maps */
(PID.TID 0000.0001) maxLengthPrt1D=   65 /* maxLength of 1D array printed to StdOut */
(PID.TID 0000.0001) 
(PID.TID 0000.0001) ======= Starting MPI parallel Run =========
(PID.TID 0000.0001)  My Processor Name (len:  8 ) = borgt165
(PID.TID 0000.0001)  Located at (  0,  0) on processor grid (0: 95,0:  0)
(PID.TID 0000.0001)  Origin at  (     1,     1) on global grid (1:  2880,1:    30)
(PID.TID 0000.0001)  North neighbor = processor 0000
(PID.TID 0000.0001)  South neighbor = processor 0000
(PID.TID 0000.0001)   East neighbor = processor 0001
(PID.TID 0000.0001)   West neighbor = processor 0095
(PID.TID 0000.0001) // ======================================================
(PID.TID 0000.0001) // Mapping of tiles to threads
(PID.TID 0000.0001) // ======================================================
(PID.TID 0000.0001) // -o- Thread   1, tiles (   1:   1,   1:   1)
(PID.TID 0000.0001) 
(PID.TID 0000.0001) W2_READPARMS: opening data.exch2
(PID.TID 0000.0001)  OPEN_COPY_DATA_FILE: opening file data.exch2
(PID.TID 0000.0001) // =======================================================
(PID.TID 0000.0001) // Parameter file "data.exch2"
(PID.TID 0000.0001) // =======================================================
(PID.TID 0000.0001) ># EXCH2 Package: Wrapper-2 User Choice
(PID.TID 0000.0001) >#--------------------
(PID.TID 0000.0001) >#  preDefTopol   :: pre-defined Topology selector:
(PID.TID 0000.0001) >#                :: = 0 : topology defined from processing "data.exch2";
(PID.TID 0000.0001) >#                :: = 1 : simple, single facet topology;
(PID.TID 0000.0001) >#                :: = 2 : customized topology (w2_set_myown_facets)
(PID.TID 0000.0001) >#                :: = 3 : 6-facet Cube (3 face-dims: nRed, nGreen, nBlue).
(PID.TID 0000.0001) >#  dimsFacets    :: facet pair of dimensions (n1x,n1y, n2x,n2y ...)
(PID.TID 0000.0001) >#  facetEdgeLink :: Face-Edge connectivity map:
(PID.TID 0000.0001) >#    facetEdgeLink(i,j)=XX.1 : face(j)-edge(i) (i=1,2,3,4 <==> N,S,E,W)
(PID.TID 0000.0001) >#    is connected to Northern edge of face "XX" ; similarly,
(PID.TID 0000.0001) >#    = XX.2 : to Southern.E, XX.3 = Eastern.E, XX.4 = Western.E of face "XX"
(PID.TID 0000.0001) >#  blankList     :: List of "blank" tiles
(PID.TID 0000.0001) >#  W2_mapIO      :: global map IO selector (-1 = old type ; 0 = 1 long line in X
(PID.TID 0000.0001) >#                :: 1 = compact, mostly in Y dir)
(PID.TID 0000.0001) >#  W2_printMsg   :: option for information messages printing
(PID.TID 0000.0001) >#                :: <0 : write to log file ; =0 : minimum print ;
(PID.TID 0000.0001) >#                :: =1 : no duplicated print ; =2 : all processes do print
(PID.TID 0000.0001) >#--------------------
(PID.TID 0000.0001) > &W2_EXCH2_PARM01
(PID.TID 0000.0001) ># W2_printMsg= 0,
(PID.TID 0000.0001) >  W2_mapIO   = 1,
(PID.TID 0000.0001) >#
(PID.TID 0000.0001) >  preDefTopol=0,
(PID.TID 0000.0001) >#-- 5 facets llc_120 topology (drop facet 6 and its connection):
(PID.TID 0000.0001) >  dimsFacets(1:10) = 90, 270, 90, 270, 90, 90, 270, 90, 270, 90,
(PID.TID 0000.0001) >  facetEdgeLink(1:4,1)= 3.4, 0. , 2.4, 5.1,
(PID.TID 0000.0001) >  facetEdgeLink(1:4,2)= 3.2, 0. , 4.2, 1.3,
(PID.TID 0000.0001) >  facetEdgeLink(1:4,3)= 5.4, 2.1, 4.4, 1.1,
(PID.TID 0000.0001) >  facetEdgeLink(1:4,4)= 5.2, 2.3, 0. , 3.3,
(PID.TID 0000.0001) >  facetEdgeLink(1:4,5)= 1.4, 4.1, 0. , 3.1,
(PID.TID 0000.0001) >#-- full 6 facets llc_120 topology (equivalent to default preDefTopol=3):
(PID.TID 0000.0001) ># dimsFacets(1:12) = 120, 360, 120, 360, 120, 120, 360, 120, 360, 120, 120, 120,
(PID.TID 0000.0001) ># facetEdgeLink(1:4,1)= 3.4, 6.1, 2.4, 5.1,
(PID.TID 0000.0001) ># facetEdgeLink(1:4,2)= 3.2, 6.3, 4.2, 1.3,
(PID.TID 0000.0001) ># facetEdgeLink(1:4,3)= 5.4, 2.1, 4.4, 1.1,
(PID.TID 0000.0001) ># facetEdgeLink(1:4,4)= 5.2, 2.3, 6.2, 3.3,
(PID.TID 0000.0001) ># facetEdgeLink(1:4,5)= 1.4, 4.1, 6.4, 3.1,
(PID.TID 0000.0001) ># facetEdgeLink(1:4,6)= 1.2, 4.3, 2.2, 5.3,
(PID.TID 0000.0001) >#
(PID.TID 0000.0001) >#90x30   nprocs = 36
(PID.TID 0000.0001) ># blankList(1:3)=1,10,11,
(PID.TID 0000.0001) >#30x90
(PID.TID 0000.0001) >#
(PID.TID 0000.0001) >#45x30   nprocs = 72
(PID.TID 0000.0001) ># blankList(1:6)=1,2,19,20,21,22
(PID.TID 0000.0001) >#30x45   nprocs = 68
(PID.TID 0000.0001) ># blankList(1:10)=2,3,19,20,21,35,51,60,69,78
(PID.TID 0000.0001) >#45x45   nprocs = 48
(PID.TID 0000.0001) ># blankList(1:4)=2,13,14,23
(PID.TID 0000.0001) >#30x30   nprocs = 96
(PID.TID 0000.0001) >  blankList(1:21)=1,2,3,5,6,28,29,30,31,32,33,49,50,52,53,72,81,90,99,108,117
(PID.TID 0000.0001) >#30x30   nprocs = 112
(PID.TID 0000.0001) ># blankList(1:5)=2,3,28,29,30
(PID.TID 0000.0001) >#15x30   nprocs = 192
(PID.TID 0000.0001) ># blankList(1:42)=1,2,3,4,5,6,9,10,11,12,55,56,57,58,59,60,61,62,63,64,65,66,
(PID.TID 0000.0001) >#            97,98,99,100,103,104,105,106,143,144,
(PID.TID 0000.0001) >#            161,162,179,180,197,198,215,216,233,234
(PID.TID 0000.0001) >#15x15   nprocs = 360
(PID.TID 0000.0001) ># blankList(1:108)=1,2,3,4,5,6,7,8,9,10,11,12,14,15,16,17,18,21,22,23,24,
(PID.TID 0000.0001) >#  65,71,75,76,90,95,96,101,102,109,110,111,112,113,114,115,116,117,118,119,
(PID.TID 0000.0001) >#  120,121,122,123,124,125,126,127,128,129,130,131,132,
(PID.TID 0000.0001) >#  188,189,190,193,194,195,196,199,
(PID.TID 0000.0001) >#  200,201,202,203,205,206,207,208,209,211,212,213,214,215,216,242,247,253,
(PID.TID 0000.0001) >#  267,268,269,270,287,288,305,306,323,324,341,342,359,360,362,376,377,378,
(PID.TID 0000.0001) >#  380,381,382,395,396,400,412,413,414,430,
(PID.TID 0000.0001) >#note: it seems that 8 of the followig 9 tiles could be added to 15x15 blank
(PID.TID 0000.0001) >#  list to reach 352=22*16 cores : 431 432 440 441 448 449 450 467 468
(PID.TID 0000.0001) > &
(PID.TID 0000.0001) 
(PID.TID 0000.0001) W2_READPARMS: finished reading data.exch2
(PID.TID 0000.0001) W2_useE2ioLayOut=    T ;/* T: use Exch2 glob IO map; F: use model default */
(PID.TID 0000.0001) W2_mapIO        =   1 ; /* select option for Exch2 global-IO map */
(PID.TID 0000.0001) W2_printMsg     =  -1 ; /* select option for printing information */
(PID.TID 0000.0001) ===== Start setting W2 TOPOLOGY:
(PID.TID 0000.0001)  write to log-file: w2_tile_topology.0000.log
(PID.TID 0000.0001) =====       setting W2 TOPOLOGY: Done
(PID.TID 0000.0001) 
(PID.TID 0000.0001)  INI_PARMS: opening model parameter file "data"
(PID.TID 0000.0001)  OPEN_COPY_DATA_FILE: opening file data
(PID.TID 0000.0001) // =======================================================
(PID.TID 0000.0001) // Parameter file "data"
(PID.TID 0000.0001) // =======================================================
(PID.TID 0000.0001) ># ====================
(PID.TID 0000.0001) ># | Model parameters |
(PID.TID 0000.0001) ># ====================
(PID.TID 0000.0001) >#
(PID.TID 0000.0001) ># Continuous equation parameters
(PID.TID 0000.0001) > &PARM01
(PID.TID 0000.0001) > tRef               = 3*23.,3*22.,21.,2*20.,19.,2*18.,17.,2*16.,15.,14.,13.,
(PID.TID 0000.0001) >                      12.,11.,2*9.,8.,7.,2*6.,2*5.,3*4.,3*3.,4*2.,12*1.,
(PID.TID 0000.0001) > sRef               = 50*34.5,
(PID.TID 0000.0001) > no_slip_sides  = .TRUE.,
(PID.TID 0000.0001) > no_slip_bottom = .TRUE.,
(PID.TID 0000.0001) >#
(PID.TID 0000.0001) > viscAr=0.5E-4,
(PID.TID 0000.0001) >#
(PID.TID 0000.0001) > viscAh=1.E0,
(PID.TID 0000.0001) > viscAhGrid=2.E-2,
(PID.TID 0000.0001) ># viscAh=2.0e4,
(PID.TID 0000.0001) >#
(PID.TID 0000.0001) > diffKhT=1.E1,
(PID.TID 0000.0001) > diffKrT=1.E-5,
(PID.TID 0000.0001) > diffKhS=1.E1,
(PID.TID 0000.0001) > diffKrS=1.E-5,
(PID.TID 0000.0001) >#
(PID.TID 0000.0001) >### diffKrBL79surf=0.1E-4,
(PID.TID 0000.0001) >### diffKrBL79deep=1.0E-4,
(PID.TID 0000.0001) > bottomDragQuadratic = 0.001,
(PID.TID 0000.0001) >#when using ggl90
(PID.TID 0000.0001) > ivdc_kappa=10.,
(PID.TID 0000.0001) > implicitDiffusion=.TRUE.,
(PID.TID 0000.0001) > implicitViscosity=.TRUE.,
(PID.TID 0000.0001) > useRealFreshWaterFlux=.TRUE.,
(PID.TID 0000.0001) ># balanceThetaClimRelax=.TRUE.,
(PID.TID 0000.0001) > balanceSaltClimRelax=.TRUE.,
(PID.TID 0000.0001) ># balanceEmPmR=.TRUE.,
(PID.TID 0000.0001) ># balanceQnet=.TRUE.,
(PID.TID 0000.0001) > allowFreezing=.FALSE.,
(PID.TID 0000.0001) >### hFacInf=0.2,
(PID.TID 0000.0001) >### hFacSup=2.0,
(PID.TID 0000.0001) > hFacMin=.2,
(PID.TID 0000.0001) > hFacMinDr=5.,
(PID.TID 0000.0001) > select_rStar=2,
(PID.TID 0000.0001) > nonlinFreeSurf=4,
(PID.TID 0000.0001) > gravity=9.81,
(PID.TID 0000.0001) > rhonil=1029.,
(PID.TID 0000.0001) > rhoConst=1029.,
(PID.TID 0000.0001) > rhoConstFresh=1000.,
(PID.TID 0000.0001) > convertFW2Salt=-1.,
(PID.TID 0000.0001) > eosType='JMD95Z',
(PID.TID 0000.0001) > implicitFreeSurface=.TRUE.,
(PID.TID 0000.0001) > exactConserv=.TRUE.,
(PID.TID 0000.0001) > useSingleCpuIO=.TRUE.,
(PID.TID 0000.0001) > tempAdvScheme=30,
(PID.TID 0000.0001) > saltAdvScheme=30,
(PID.TID 0000.0001) > tempVertAdvScheme=3,
(PID.TID 0000.0001) > saltVertAdvScheme=3,
(PID.TID 0000.0001) > tempImplVertAdv=.TRUE.,
(PID.TID 0000.0001) > saltImplVertAdv=.TRUE.,
(PID.TID 0000.0001) > staggerTimeStep=.TRUE.,
(PID.TID 0000.0001) > vectorInvariantMomentum=.TRUE.,
(PID.TID 0000.0001) >#when using the cd scheme:
(PID.TID 0000.0001) ># useCDscheme=.TRUE.,
(PID.TID 0000.0001) > useJamartWetPoints=.TRUE.,
(PID.TID 0000.0001) > readBinaryPrec=32,
(PID.TID 0000.0001) > writeBinaryPrec=32,
(PID.TID 0000.0001) > debugLevel=1,
(PID.TID 0000.0001) > &
(PID.TID 0000.0001) >
(PID.TID 0000.0001) ># Elliptic solver parameters
(PID.TID 0000.0001) > &PARM02
(PID.TID 0000.0001) > cg2dMaxIters=300,
(PID.TID 0000.0001) > cg2dTargetResWunit=1.E-12,
(PID.TID 0000.0001) > &
(PID.TID 0000.0001) >
(PID.TID 0000.0001) ># Time stepping parameters
(PID.TID 0000.0001) > &PARM03
(PID.TID 0000.0001) > nIter0=1,
(PID.TID 0000.0001) >#2 lev2 for testing:
(PID.TID 0000.0001) >#nTimeSteps=8,
(PID.TID 0000.0001) >#20y:
(PID.TID 0000.0001) > nTimeSteps=175295,
(PID.TID 0000.0001) >#60 years
(PID.TID 0000.0001) >#nTimeSteps=525985,
(PID.TID 0000.0001) >#
(PID.TID 0000.0001) > forcing_In_AB=.FALSE.,
(PID.TID 0000.0001) > momDissip_In_AB=.FALSE.,
(PID.TID 0000.0001) >#when using the cd scheme:
(PID.TID 0000.0001) ># epsAB_CD = 0.25,
(PID.TID 0000.0001) ># tauCD=172800.0,
(PID.TID 0000.0001) > deltaTmom   =3600.,
(PID.TID 0000.0001) > deltaTtracer=3600.,
(PID.TID 0000.0001) > deltaTfreesurf=3600.,
(PID.TID 0000.0001) > deltaTClock =3600.,
(PID.TID 0000.0001) >#when using ab2:
(PID.TID 0000.0001) > abEps = 0.1,
(PID.TID 0000.0001) >#when using ab3:
(PID.TID 0000.0001) ># doAB_onGtGs=.FALSE.,
(PID.TID 0000.0001) ># alph_AB=0.5,
(PID.TID 0000.0001) ># beta_AB=0.281105,
(PID.TID 0000.0001) >#
(PID.TID 0000.0001) > pChkptFreq  =31536000.0,
(PID.TID 0000.0001) > chkptFreq   =31536000.0,
(PID.TID 0000.0001) ># taveFreq    =31536000.0,
(PID.TID 0000.0001) ># dumpFreq    =31536000.0,
(PID.TID 0000.0001) > monitorFreq = 7200.0,
(PID.TID 0000.0001) ># monitorFreq = 6307200.0,
(PID.TID 0000.0001) > dumpInitAndLast = .TRUE.,
(PID.TID 0000.0001) > adjMonitorFreq = 864000.0,
(PID.TID 0000.0001) > pickupStrictlyMatch=.FALSE.,
(PID.TID 0000.0001) > &
(PID.TID 0000.0001) >
(PID.TID 0000.0001) ># Gridding parameters
(PID.TID 0000.0001) > &PARM04
(PID.TID 0000.0001) > usingCurvilinearGrid=.TRUE.,
(PID.TID 0000.0001) > delR =
(PID.TID 0000.0001) >     10.00, 10.00, 10.00, 10.00, 10.00, 10.00, 10.00, 10.01,
(PID.TID 0000.0001) >     10.03, 10.11, 10.32, 10.80, 11.76, 13.42, 16.04, 19.82, 24.85,
(PID.TID 0000.0001) >     31.10, 38.42, 46.50, 55.00, 63.50, 71.58, 78.90, 85.15, 90.18,
(PID.TID 0000.0001) >     93.96, 96.58, 98.25, 99.25,100.01,101.33,104.56,111.33,122.83,
(PID.TID 0000.0001) >     139.09,158.94,180.83,203.55,226.50,249.50,272.50,295.50,318.50,
(PID.TID 0000.0001) >     341.50,364.50,387.50,410.50,433.50,456.50,
(PID.TID 0000.0001) > &
(PID.TID 0000.0001) >
(PID.TID 0000.0001) ># Input datasets
(PID.TID 0000.0001) > &PARM05
(PID.TID 0000.0001) >#adTapeDir='tapes',
(PID.TID 0000.0001) > bathyFile      ='bathy.bin',
(PID.TID 0000.0001) > hydrogThetaFile='T_OWPv1_M_eccollc_90x50.bin',
(PID.TID 0000.0001) > hydrogSaltFile ='S_OWPv1_M_eccollc_90x50.bin',
(PID.TID 0000.0001) > viscA4Dfile    ='viscA4Dfld.bin',
(PID.TID 0000.0001) > viscA4Zfile    ='viscA4Zfld.bin',
(PID.TID 0000.0001) > geothermalFile='geothermalFlux.bin',
(PID.TID 0000.0001) >#
(PID.TID 0000.0001) > &
(PID.TID 0000.0001) 
(PID.TID 0000.0001)  INI_PARMS ; starts to read PARM01
(PID.TID 0000.0001)  INI_PARMS ; read PARM01 : OK
(PID.TID 0000.0001)  INI_PARMS ; starts to read PARM02
(PID.TID 0000.0001)  INI_PARMS ; read PARM02 : OK
(PID.TID 0000.0001)  INI_PARMS ; starts to read PARM03
(PID.TID 0000.0001)  INI_PARMS ; read PARM03 : OK
(PID.TID 0000.0001)  INI_PARMS ; starts to read PARM04
(PID.TID 0000.0001)  INI_PARMS ; read PARM04 : OK
(PID.TID 0000.0001)  INI_PARMS ; starts to read PARM05
(PID.TID 0000.0001)  INI_PARMS ; read PARM05 : OK
(PID.TID 0000.0001)  INI_PARMS: finished reading file "data"
(PID.TID 0000.0001)  PACKAGES_BOOT: opening data.pkg
(PID.TID 0000.0001)  OPEN_COPY_DATA_FILE: opening file data.pkg
(PID.TID 0000.0001) // =======================================================
(PID.TID 0000.0001) // Parameter file "data.pkg"
(PID.TID 0000.0001) // =======================================================
(PID.TID 0000.0001) ># Packages
(PID.TID 0000.0001) > &PACKAGES
(PID.TID 0000.0001) > useEXF             = .TRUE.,
(PID.TID 0000.0001) > useCAL             = .TRUE.,
(PID.TID 0000.0001) > useGMRedi          = .TRUE.,
(PID.TID 0000.0001) > useSeaice          = .TRUE.,
(PID.TID 0000.0001) > useGGL90           = .TRUE.,
(PID.TID 0000.0001) > useSALT_PlUME      = .TRUE.,
(PID.TID 0000.0001) > useDiagnostics     = .TRUE.,
(PID.TID 0000.0001) > useAUTODIFF        = .FALSE.,
(PID.TID 0000.0001) > useECCO            = .FALSE.,
(PID.TID 0000.0001) ># useCTRL            = .TRUE.,
(PID.TID 0000.0001) > useProfiles        = .FALSE.,
(PID.TID 0000.0001) > useSMOOTH          = .FALSE.,
(PID.TID 0000.0001) > &
(PID.TID 0000.0001) 
(PID.TID 0000.0001)  PACKAGES_BOOT: finished reading data.pkg
(PID.TID 0000.0001)  PACKAGES_BOOT: On/Off package Summary
 --------  pkgs with a standard "usePKG" On/Off switch in "data.pkg":  --------
 pkg/ggl90                compiled   and   used ( useGGL90                 = T )
 pkg/gmredi               compiled   and   used ( useGMRedi                = T )
 pkg/cal                  compiled   and   used ( useCAL                   = T )
 pkg/exf                  compiled   and   used ( useEXF                   = T )
 pkg/ctrl                 compiled but not used ( useCTRL                  = F )
 pkg/sbo                  compiled but not used ( useSBO                   = F )
 pkg/seaice               compiled   and   used ( useSEAICE                = T )
 pkg/salt_plume           compiled   and   used ( useSALT_PLUME            = T )
 pkg/diagnostics          compiled   and   used ( useDiagnostics           = T )
 -------- pkgs without standard "usePKG" On/Off switch in "data.pkg":  --------
 pkg/generic_advdiff      compiled   and   used ( useGAD                   = T )
 pkg/mom_common           compiled   and   used ( momStepping              = T )
 pkg/mom_vecinv           compiled   and   used ( +vectorInvariantMomentum = T )
 pkg/monitor              compiled   and   used ( monitorFreq > 0.         = T )
 pkg/timeave              compiled but not used ( taveFreq > 0.            = F )
 pkg/debug                compiled but not used ( debugMode                = F )
 pkg/exch2                compiled   and   used
 pkg/rw                   compiled   and   used
 pkg/mdsio                compiled   and   used
(PID.TID 0000.0001)  PACKAGES_BOOT: End of package Summary
(PID.TID 0000.0001) 
(PID.TID 0000.0001) CAL_READPARMS: opening data.cal
(PID.TID 0000.0001)  OPEN_COPY_DATA_FILE: opening file data.cal
(PID.TID 0000.0001) // =======================================================
(PID.TID 0000.0001) // Parameter file "data.cal"
(PID.TID 0000.0001) // =======================================================
(PID.TID 0000.0001) >#
(PID.TID 0000.0001) ># *******************
(PID.TID 0000.0001) ># Calendar Parameters
(PID.TID 0000.0001) ># *******************
(PID.TID 0000.0001) > &CAL_NML
(PID.TID 0000.0001) > TheCalendar='gregorian',
(PID.TID 0000.0001) > calendarDumps=.TRUE.,
(PID.TID 0000.0001) ># TheCalendar='model',
(PID.TID 0000.0001) > startDate_1=19920101,
(PID.TID 0000.0001) > startDate_2=120000,
(PID.TID 0000.0001) > &
(PID.TID 0000.0001) 
(PID.TID 0000.0001) CAL_READPARMS: finished reading data.cal
(PID.TID 0000.0001) EXF_READPARMS: opening data.exf
(PID.TID 0000.0001)  OPEN_COPY_DATA_FILE: opening file data.exf
(PID.TID 0000.0001) // =======================================================
(PID.TID 0000.0001) // Parameter file "data.exf"
(PID.TID 0000.0001) // =======================================================
(PID.TID 0000.0001) ># *********************
(PID.TID 0000.0001) ># External Forcing Data
(PID.TID 0000.0001) ># *********************
(PID.TID 0000.0001) >#
(PID.TID 0000.0001) > &EXF_NML_01
(PID.TID 0000.0001) >#
(PID.TID 0000.0001) > useAtmWind        = .FALSE.,
(PID.TID 0000.0001) > readStressOnAgrid = .TRUE.,
(PID.TID 0000.0001) > rotateStressOnAgrid = .TRUE.,
(PID.TID 0000.0001) >#NCEP VALUES:
(PID.TID 0000.0001) ># exf_albedo        = 0.15,
(PID.TID 0000.0001) ># exf_scal_BulkCdn  = 1.015,
(PID.TID 0000.0001) >#
(PID.TID 0000.0001) >#TO COMBINE WITH ALLOW_ZENITH_ANGLE:
(PID.TID 0000.0001) > exf_albedo        = 0.1,
(PID.TID 0000.0001) > useExfZenIncoming = .TRUE.,
(PID.TID 0000.0001) > select_ZenAlbedo  = 1,
(PID.TID 0000.0001) >#
(PID.TID 0000.0001) > ocean_emissivity = 0.97,
(PID.TID 0000.0001) > ice_emissivity = 0.95,
(PID.TID 0000.0001) > snow_emissivity = 0.95,
(PID.TID 0000.0001) >#
(PID.TID 0000.0001) > exf_iprec         = 32,
(PID.TID 0000.0001) > useExfYearlyFields= .TRUE.,
(PID.TID 0000.0001) > useExfCheckRange  = .FALSE.,
(PID.TID 0000.0001) > &
(PID.TID 0000.0001) >#
(PID.TID 0000.0001) > &EXF_NML_02
(PID.TID 0000.0001) > ustressfile       = 'eccov4r2_ustr',
(PID.TID 0000.0001) > vstressfile       = 'eccov4r2_vstr',
(PID.TID 0000.0001) > atempfile         = 'eccov4r2_tmp2m_degC',
(PID.TID 0000.0001) > aqhfile           = 'eccov4r2_spfh2m',
(PID.TID 0000.0001) > precipfile        = 'eccov4r2_rain',
(PID.TID 0000.0001) > wspeedfile        = 'eccov4r2_wspeed',
(PID.TID 0000.0001) > swdownfile        = 'eccov4r2_dsw',
(PID.TID 0000.0001) > lwdownfile        = 'eccov4r2_dlw',
(PID.TID 0000.0001) >#
(PID.TID 0000.0001) > ustressstartdate1   = 19920101,
(PID.TID 0000.0001) > ustressstartdate2   = 030000,
(PID.TID 0000.0001) > ustressperiod       = 21600.0,
(PID.TID 0000.0001) >#
(PID.TID 0000.0001) > vstressstartdate1   = 19920101,
(PID.TID 0000.0001) > vstressstartdate2   = 030000,
(PID.TID 0000.0001) > vstressperiod       = 21600.0,
(PID.TID 0000.0001) >#
(PID.TID 0000.0001) > atempstartdate1   = 19920101,
(PID.TID 0000.0001) > atempstartdate2   = 030000,
(PID.TID 0000.0001) > atempperiod       = 21600.0,
(PID.TID 0000.0001) >#
(PID.TID 0000.0001) > aqhstartdate1     = 19920101,
(PID.TID 0000.0001) > aqhstartdate2     = 030000,
(PID.TID 0000.0001) > aqhperiod         = 21600.0,
(PID.TID 0000.0001) >#
(PID.TID 0000.0001) > precipstartdate1  = 19920101,
(PID.TID 0000.0001) > precipstartdate2  = 030000,
(PID.TID 0000.0001) > precipperiod      = 21600.0,
(PID.TID 0000.0001) >#
(PID.TID 0000.0001) > runofffile        = 'runoff.bin',
(PID.TID 0000.0001) > runoffperiod      = -12,
(PID.TID 0000.0001) >#
(PID.TID 0000.0001) > uwindstartdate1   = 19920101,
(PID.TID 0000.0001) > uwindstartdate2   = 030000,
(PID.TID 0000.0001) > uwindperiod       = 21600.0,
(PID.TID 0000.0001) >#
(PID.TID 0000.0001) > vwindstartdate1   = 19920101,
(PID.TID 0000.0001) > vwindstartdate2   = 030000,
(PID.TID 0000.0001) > vwindperiod       = 21600.0,
(PID.TID 0000.0001) >#
(PID.TID 0000.0001) > wspeedstartdate1   = 19920101,
(PID.TID 0000.0001) > wspeedstartdate2   = 030000,
(PID.TID 0000.0001) > wspeedperiod       = 21600.0,
(PID.TID 0000.0001) >#
(PID.TID 0000.0001) > swdownstartdate1  = 19920101,
(PID.TID 0000.0001) > swdownstartdate2  = 030000,
(PID.TID 0000.0001) > swdownperiod      = 21600.0,
(PID.TID 0000.0001) >#
(PID.TID 0000.0001) > lwdownstartdate1  = 19920101,
(PID.TID 0000.0001) > lwdownstartdate2  = 030000,
(PID.TID 0000.0001) > lwdownperiod      = 21600.0,
(PID.TID 0000.0001) >#
(PID.TID 0000.0001) > apressurestartdate1   = 19920101,
(PID.TID 0000.0001) > apressurestartdate2   = 030000,
(PID.TID 0000.0001) > apressureperiod       = 21600.0,
(PID.TID 0000.0001) >#
(PID.TID 0000.0001) > climsstperiod     = -12.,
(PID.TID 0000.0001) >#climsssfile       = 'SSS_WPv1_M_eccollc_90x50.bin',
(PID.TID 0000.0001) > climsssperiod     = -12.,
(PID.TID 0000.0001) >#climsssTauRelax   = 15768000.,
(PID.TID 0000.0001) > &
(PID.TID 0000.0001) >#
(PID.TID 0000.0001) > &EXF_NML_03
(PID.TID 0000.0001) >#NOT FOR EIG exf_offset_atemp  = 273.3971,
(PID.TID 0000.0001) > exf_offset_atemp  = 273.15,
(PID.TID 0000.0001) >#NOT FOR NEW RUNOFF FIELD exf_inscal_runoff = 3.1710e-08,
(PID.TID 0000.0001) > exf_inscal_swdown = -1.0,
(PID.TID 0000.0001) >#the value I would now use, if I started over. But to recover old results ...
(PID.TID 0000.0001) >#exf_inscal_lwdown = -1.0,
(PID.TID 0000.0001) >#... old results, where ocean emissivity was wrongly treated as 1 for lwdown:
(PID.TID 0000.0001) > exf_inscal_lwdown = -1.0,
(PID.TID 0000.0001) > exf_inscal_ustress = -1.0,
(PID.TID 0000.0001) > exf_inscal_vstress = -1.0,
(PID.TID 0000.0001) ># to compensate for sea level rise for nlfs/realFWF
(PID.TID 0000.0001) >#precip_exfremo_intercept = 1.073E-9,
(PID.TID 0000.0001) >#precip_exfremo_slope = -3.340E-18,
(PID.TID 0000.0001) > &
(PID.TID 0000.0001) >#
(PID.TID 0000.0001) > &EXF_NML_04
(PID.TID 0000.0001) > ustress_interpMethod = 0,
(PID.TID 0000.0001) > vstress_interpMethod = 0,
(PID.TID 0000.0001) > atemp_interpMethod = 0,
(PID.TID 0000.0001) > aqh_interpMethod = 0,
(PID.TID 0000.0001) > precip_interpMethod = 0,
(PID.TID 0000.0001) > wspeed_interpMethod = 0,
(PID.TID 0000.0001) > swdown_interpMethod = 0,
(PID.TID 0000.0001) > lwdown_interpMethod = 0,
(PID.TID 0000.0001) > runoff_interpMethod = 0,
(PID.TID 0000.0001) > climsss_interpMethod = 0,
(PID.TID 0000.0001) >#
(PID.TID 0000.0001) > &
(PID.TID 0000.0001) >
(PID.TID 0000.0001) 
(PID.TID 0000.0001) EXF_READPARMS: reading EXF_NML_01
(PID.TID 0000.0001) EXF_READPARMS: reading EXF_NML_02
(PID.TID 0000.0001) EXF_READPARMS: reading EXF_NML_03
(PID.TID 0000.0001) EXF_READPARMS: reading EXF_NML_04
(PID.TID 0000.0001) EXF_READPARMS: finished reading data.exf
(PID.TID 0000.0001)  GGL90_READPARMS: opening data.ggl90
(PID.TID 0000.0001)  OPEN_COPY_DATA_FILE: opening file data.ggl90
(PID.TID 0000.0001) // =======================================================
(PID.TID 0000.0001) // Parameter file "data.ggl90"
(PID.TID 0000.0001) // =======================================================
(PID.TID 0000.0001) ># =====================================================================
(PID.TID 0000.0001) ># | Parameters for Gaspar et al. (1990)'s TKE vertical mixing scheme  |
(PID.TID 0000.0001) ># =====================================================================
(PID.TID 0000.0001) > &GGL90_PARM01
(PID.TID 0000.0001) ># GGL90taveFreq = 345600000.,
(PID.TID 0000.0001) ># GGL90dumpFreq = 86400.,
(PID.TID 0000.0001) ># GGL90writeState=.FALSE.,
(PID.TID 0000.0001) ># GGL90diffTKEh=3.e3,
(PID.TID 0000.0001) > GGL90alpha=30.,
(PID.TID 0000.0001) ># GGL90TKEFile = 'TKE_init.bin',
(PID.TID 0000.0001) > GGL90TKEmin  = 1.e-7,
(PID.TID 0000.0001) > GGL90TKEbottom = 1.e-6,
(PID.TID 0000.0001) > mxlMaxFlag =2,
(PID.TID 0000.0001) > mxlSurfFlag=.TRUE.,
(PID.TID 0000.0001) > &
(PID.TID 0000.0001) 
(PID.TID 0000.0001)  GGL90_READPARMS: finished reading data.ggl90
(PID.TID 0000.0001) // =======================================================
(PID.TID 0000.0001) // GGL90 configuration
(PID.TID 0000.0001) // =======================================================
(PID.TID 0000.0001) GGL90dumpFreq =   /* GGL90 state write out interval ( s ). */
(PID.TID 0000.0001)                 0.000000000000000E+00
(PID.TID 0000.0001)     ;
(PID.TID 0000.0001) GGL90taveFreq =   /* GGL90 averaging interval ( s ). */
(PID.TID 0000.0001)                 0.000000000000000E+00
(PID.TID 0000.0001)     ;
(PID.TID 0000.0001) GGL90mixingMAPS =   /* GGL90 IO flag. */
(PID.TID 0000.0001)                   F
(PID.TID 0000.0001)     ;
(PID.TID 0000.0001) GGL90writeState =   /* GGL90 IO flag. */
(PID.TID 0000.0001)                   F
(PID.TID 0000.0001)     ;
(PID.TID 0000.0001) GGL90ck =   /* GGL90 viscosity parameter. */
(PID.TID 0000.0001)                 1.000000000000000E-01
(PID.TID 0000.0001)     ;
(PID.TID 0000.0001) GGL90ceps =   /* GGL90 dissipation parameter. */
(PID.TID 0000.0001)                 7.000000000000000E-01
(PID.TID 0000.0001)     ;
(PID.TID 0000.0001) GGL90alpha =   /* GGL90 TKE diffusivity parameter. */
(PID.TID 0000.0001)                 3.000000000000000E+01
(PID.TID 0000.0001)     ;
(PID.TID 0000.0001) GGL90m2 =   /* GGL90 wind stress to vertical stress ratio. */
(PID.TID 0000.0001)                 3.750000000000000E+00
(PID.TID 0000.0001)     ;
(PID.TID 0000.0001) GGL90TKEmin =   /* GGL90 minimum kinetic energy ( m^2/s^2 ). */
(PID.TID 0000.0001)                 1.000000000000000E-07
(PID.TID 0000.0001)     ;
(PID.TID 0000.0001) GGL90TKEsurfMin =   /* GGL90 minimum surface kinetic energy ( m^2/s^2 ). */
(PID.TID 0000.0001)                 1.000000000000000E-04
(PID.TID 0000.0001)     ;
(PID.TID 0000.0001) GGL90TKEbottom =   /* GGL90 bottom kinetic energy ( m^2/s^2 ). */
(PID.TID 0000.0001)                 1.000000000000000E-06
(PID.TID 0000.0001)     ;
(PID.TID 0000.0001) GGL90viscMax =   /* GGL90 upper limit for viscosity ( m^2/s ). */
(PID.TID 0000.0001)                 1.000000000000000E+02
(PID.TID 0000.0001)     ;
(PID.TID 0000.0001) GGL90diffMax =   /* GGL90 upper limit for diffusivity ( m^2/s ). */
(PID.TID 0000.0001)                 1.000000000000000E+02
(PID.TID 0000.0001)     ;
(PID.TID 0000.0001) GGL90diffTKEh =   /* GGL90 horizontal diffusivity for TKE ( m^2/s ). */
(PID.TID 0000.0001)                 0.000000000000000E+00
(PID.TID 0000.0001)     ;
(PID.TID 0000.0001) GGL90mixingLengthMin =   /* GGL90 minimum mixing length ( m ). */
(PID.TID 0000.0001)                 1.000000000000000E-08
(PID.TID 0000.0001)     ;
(PID.TID 0000.0001) mxlMaxFlag =   /* Flag for limiting mixing-length method */
(PID.TID 0000.0001)                       2
(PID.TID 0000.0001)     ;
(PID.TID 0000.0001) mxlSurfFlag =   /* GGL90 flag for near surface mixing. */
(PID.TID 0000.0001)                   T
(PID.TID 0000.0001)     ;
(PID.TID 0000.0001) calcMeanVertShear = /* calc Mean of Vert.Shear (vs shear of Mean flow) */
(PID.TID 0000.0001)                   F
(PID.TID 0000.0001)     ;
(PID.TID 0000.0001) GGL90: GGL90TKEFile =
(PID.TID 0000.0001) GGL90writeState =   /* GGL90 Boundary condition flag. */
(PID.TID 0000.0001)                   T
(PID.TID 0000.0001)     ;
(PID.TID 0000.0001) // =======================================================
(PID.TID 0000.0001) // End of GGL90 config. summary
(PID.TID 0000.0001) // =======================================================
(PID.TID 0000.0001) 
(PID.TID 0000.0001)  GM_READPARMS: opening data.gmredi
(PID.TID 0000.0001)  OPEN_COPY_DATA_FILE: opening file data.gmredi
(PID.TID 0000.0001) // =======================================================
(PID.TID 0000.0001) // Parameter file "data.gmredi"
(PID.TID 0000.0001) // =======================================================
(PID.TID 0000.0001) ># GM+Redi package parameters:
(PID.TID 0000.0001) >#     GM_Small_Number  :: epsilon used in computing the slope
(PID.TID 0000.0001) >#     GM_slopeSqCutoff :: slope^2 cut-off value
(PID.TID 0000.0001) >
(PID.TID 0000.0001) >#-from MOM :
(PID.TID 0000.0001) ># GM_background_K: 	G & Mc.W  diffusion coefficient
(PID.TID 0000.0001) ># GM_maxSlope    :	max slope of isopycnals
(PID.TID 0000.0001) ># GM_Scrit       :	transition for scaling diffusion coefficient
(PID.TID 0000.0001) ># GM_Sd          :	half width scaling for diffusion coefficient
(PID.TID 0000.0001) ># GM_taper_scheme:	slope clipping or one of the tapering schemes
(PID.TID 0000.0001) ># GM_Kmin_horiz  :	horizontal diffusion minimum value
(PID.TID 0000.0001) >
(PID.TID 0000.0001) >#-Option parameters (needs to "define" options in GMREDI_OPTIONS.h")
(PID.TID 0000.0001) ># GM_isopycK     :	isopycnal diffusion coefficient (default=GM_background_K)
(PID.TID 0000.0001) ># GM_AdvForm     :	turn on GM Advective form       (default=Skew flux form)
(PID.TID 0000.0001) >
(PID.TID 0000.0001) > &GM_PARM01
(PID.TID 0000.0001) >  GM_Small_Number  = 1.D-20,
(PID.TID 0000.0001) >  GM_slopeSqCutoff = 1.D+08,
(PID.TID 0000.0001) >  GM_AdvForm         = .TRUE.,
(PID.TID 0000.0001) >  GM_isopycK         = 1.D+3,
(PID.TID 0000.0001) >  GM_background_K    = 1.D+3,
(PID.TID 0000.0001) >  GM_maxSlope        = 4.D-3,
(PID.TID 0000.0001) >  GM_taper_scheme    = 'stableGmAdjTap',
(PID.TID 0000.0001) >  GM_Kmin_horiz      = 100.,
(PID.TID 0000.0001) >  GM_Scrit           = 4.D-3,
(PID.TID 0000.0001) >  GM_Sd              = 1.D-3,
(PID.TID 0000.0001) >#
(PID.TID 0000.0001) >###  GM_Visbeck_alpha   = 1.5D-2,
(PID.TID 0000.0001) >###  GM_Visbeck_alpha   = 0.D0,
(PID.TID 0000.0001) >###  GM_Visbeck_length  = 2.D+5,
(PID.TID 0000.0001) >###  GM_Visbeck_depth   = 1.D+3,
(PID.TID 0000.0001) >###  GM_Visbeck_maxval_K= 2.5D+3,
(PID.TID 0000.0001) > &
(PID.TID 0000.0001) >
(PID.TID 0000.0001) >
(PID.TID 0000.0001) 
(PID.TID 0000.0001)  GM_READPARMS: finished reading data.gmredi
(PID.TID 0000.0001) 
(PID.TID 0000.0001)  SEAICE_READPARMS: opening data.seaice
(PID.TID 0000.0001)  OPEN_COPY_DATA_FILE: opening file data.seaice
(PID.TID 0000.0001) // =======================================================
(PID.TID 0000.0001) // Parameter file "data.seaice"
(PID.TID 0000.0001) // =======================================================
(PID.TID 0000.0001) ># SEAICE parameters
(PID.TID 0000.0001) > &SEAICE_PARM01
(PID.TID 0000.0001) >      SEAICEuseTILT=.FALSE.,
(PID.TID 0000.0001) >      SEAICEpresH0=2.,
(PID.TID 0000.0001) >      SEAICEpresPow0=1,
(PID.TID 0000.0001) >      SEAICEpresPow1=3,
(PID.TID 0000.0001) >      SEAICE_multDim=1,
(PID.TID 0000.0001) >      SEAICErestoreUnderIce=.TRUE.,
(PID.TID 0000.0001) >      SEAICE_area_max=0.95,
(PID.TID 0000.0001) >#for backward compatibility (before 2011 june 19, those were the defaults)
(PID.TID 0000.0001) >#     SEAICE_area_floor=0.15,
(PID.TID 0000.0001) >#     SEAICE_area_reg=0.15,
(PID.TID 0000.0001) >      SEAICE_salt0=4.,
(PID.TID 0000.0001) ># for long time step:
(PID.TID 0000.0001) >#      SEAICE_deltaTevp   = 720.,
(PID.TID 0000.0001) ># for regular time step:
(PID.TID 0000.0001) >#      SEAICE_deltaTevp   = 60.,
(PID.TID 0000.0001) ># for lsr:
(PID.TID 0000.0001) >      LSR_ERROR          = 2.e-4,
(PID.TID 0000.0001) >      SEAICEuseDYNAMICS  = .TRUE.,
(PID.TID 0000.0001) ># BAD OPTION -- DO NOT USE -- SEAICE_maskRHS     = .TRUE.,
(PID.TID 0000.0001) >      MIN_ATEMP          = -40.,
(PID.TID 0000.0001) >      MIN_TICE           = -40.,
(PID.TID 0000.0001) >      SEAICEadvScheme    = 30,
(PID.TID 0000.0001) >      SEAICEuseFluxForm = .TRUE.,
(PID.TID 0000.0001) >      SEAICEadvSnow      = .TRUE.,
(PID.TID 0000.0001) >#      SEAICEadvSalt      = .TRUE.,
(PID.TID 0000.0001) >      SEAICEdiffKhHeff   = 400.,
(PID.TID 0000.0001) >      SEAICEdiffKhArea   = 400.,
(PID.TID 0000.0001) >      SEAICEdiffKhSnow   = 400.,
(PID.TID 0000.0001) >#      SEAICEdiffKhSalt   = 400.,
(PID.TID 0000.0001) >      SEAICEuseFlooding  = .TRUE.,
(PID.TID 0000.0001) >      SEAICE_mcPheePiston= 3.858024691358025E-05,
(PID.TID 0000.0001) >      SEAICE_frazilFrac  = 1.,
(PID.TID 0000.0001) >      SEAICE_mcPheeTaper = 0.,
(PID.TID 0000.0001) >      SEAICE_areaLossFormula=2,
(PID.TID 0000.0001) >      SEAICEheatConsFix  = .TRUE.,
(PID.TID 0000.0001) >      SEAICE_tempFrz0    = -1.96,
(PID.TID 0000.0001) >      SEAICE_dTempFrz_dS = 0.,
(PID.TID 0000.0001) >      SEAICEuseMetricTerms = .TRUE.,
(PID.TID 0000.0001) >      SEAICE_no_slip     = .FALSE.,
(PID.TID 0000.0001) >      SEAICE_clipVelocities = .TRUE.,
(PID.TID 0000.0001) >#take 33% out of (1-albedo)
(PID.TID 0000.0001) >      SEAICE_dryIceAlb   = 0.84,
(PID.TID 0000.0001) >      SEAICE_wetIceAlb   = 0.78,
(PID.TID 0000.0001) >      SEAICE_drySnowAlb  = 0.90,
(PID.TID 0000.0001) >      SEAICE_wetSnowAlb  = 0.8 ,
(PID.TID 0000.0001) >#default albedos
(PID.TID 0000.0001) >      SEAICE_dryIceAlb_south   = 0.75
(PID.TID 0000.0001) >      SEAICE_wetIceAlb_south   = 0.66
(PID.TID 0000.0001) >      SEAICE_drySnowAlb_south  = 0.84
(PID.TID 0000.0001) >      SEAICE_wetSnowAlb_south  = 0.7
(PID.TID 0000.0001) > &
(PID.TID 0000.0001) >#
(PID.TID 0000.0001) > &SEAICE_PARM02
(PID.TID 0000.0001) > &
(PID.TID 0000.0001) >
(PID.TID 0000.0001) 
(PID.TID 0000.0001)  SEAICE_READPARMS: finished reading data.seaice
(PID.TID 0000.0001) SALT_PLUME_READPARMS: opening data.salt_plume
(PID.TID 0000.0001)  OPEN_COPY_DATA_FILE: opening file data.salt_plume
(PID.TID 0000.0001) // =======================================================
(PID.TID 0000.0001) // Parameter file "data.salt_plume"
(PID.TID 0000.0001) // =======================================================
(PID.TID 0000.0001) > &SALT_PLUME_PARM01
(PID.TID 0000.0001) ># SaltPlumeCriterion = 0.4D0,
(PID.TID 0000.0001) > SPsalFRAC= 0.5D0,
(PID.TID 0000.0001) >#SPsalFRAC= 0.25D0,
(PID.TID 0000.0001) >#SPsalFRAC= 0.0D0,
(PID.TID 0000.0001) > &
(PID.TID 0000.0001) 
(PID.TID 0000.0001) SALT_PLUME_READPARMS: finished reading data.salt_plume
(PID.TID 0000.0001)  DIAGNOSTICS_READPARMS: opening data.diagnostics
(PID.TID 0000.0001)  OPEN_COPY_DATA_FILE: opening file data.diagnostics
(PID.TID 0000.0001) // =======================================================
(PID.TID 0000.0001) // Parameter file "data.diagnostics"
(PID.TID 0000.0001) // =======================================================
(PID.TID 0000.0001) ># Diagnostic Package Choices
(PID.TID 0000.0001) >#-----------------
(PID.TID 0000.0001) ># for each output-stream:
(PID.TID 0000.0001) >#  filename(n) : prefix of the output file name (only 8.c long) for outp.stream n
(PID.TID 0000.0001) >#  frequency(n):< 0 : write snap-shot output every multiple of |frequency| (iter)
(PID.TID 0000.0001) >#               > 0 : write time-average output every multiple of frequency (iter)
(PID.TID 0000.0001) >#  levels(:,n) : list of levels to write to file (Notes: declared as REAL)
(PID.TID 0000.0001) >#                 when this entry is missing, select all common levels of this list
(PID.TID 0000.0001) >#  fields(:,n) : list of diagnostics fields (8.c) (see "available_diagnostics" file
(PID.TID 0000.0001) >#                 for the list of all available diag. in this particular config)
(PID.TID 0000.0001) >#--------------------------------------------------------------------
(PID.TID 0000.0001) >#
(PID.TID 0000.0001) > &diagnostics_list
(PID.TID 0000.0001) >#
(PID.TID 0000.0001) >   dumpatlast = .TRUE.,
(PID.TID 0000.0001) >   diagMdsDir = 'diags',
(PID.TID 0000.0001) >#---
(PID.TID 0000.0001) >  frequency(1) = 2635200.0,
(PID.TID 0000.0001) >   fields(1:25,1) = 'ETAN    ','SIarea  ','SIheff ','SIhsnow ',
(PID.TID 0000.0001) >#stuff that is not quite state variables (and may not be quite
(PID.TID 0000.0001) >#synchroneous) but are added here to reduce number of files
(PID.TID 0000.0001) >                 'DETADT2 ','PHIBOT  ','sIceLoad',
(PID.TID 0000.0001) >                 'MXLDEPTH','oceSPDep',
(PID.TID 0000.0001) >                 'SIatmQnt','SIatmFW ','oceQnet ','oceFWflx',
(PID.TID 0000.0001) >                 'oceTAUX ','oceTAUY ',
(PID.TID 0000.0001) >                 'ADVxHEFF','ADVyHEFF','DFxEHEFF','DFyEHEFF',
(PID.TID 0000.0001) >                 'ADVxSNOW','ADVySNOW','DFxESNOW','DFyESNOW',
(PID.TID 0000.0001) >                 'SIuice  ','SIvice  ',
(PID.TID 0000.0001) >   filename(1) = 'state_2d_set1',
(PID.TID 0000.0001) >#---
(PID.TID 0000.0001) >  frequency(2) = 2635200.0,
(PID.TID 0000.0001) >   fields(1:3,2) = 'THETA   ','SALT    ',
(PID.TID 0000.0001) >#stuff that is not quite state variables (and may not be quite
(PID.TID 0000.0001) >#synchroneous) but are added here to reduce file number
(PID.TID 0000.0001) >                 'DRHODR  ',
(PID.TID 0000.0001) >#                'KPPviscA','KPPdiffT','KPPdiffTS',
(PID.TID 0000.0001) >#                'GGL90TKE','GGL90Lmx','GGL90Prl',
(PID.TID 0000.0001) >#                'GGL90ArU','GGL90ArV','GGL90Kr ',
(PID.TID 0000.0001) >   filename(2) = 'state_3d_set1',
(PID.TID 0000.0001) >#---
(PID.TID 0000.0001) >  frequency(3) = 2635200.0,
(PID.TID 0000.0001) >   fields(1:5,3) = 'UVELMASS','VVELMASS','WVELMASS',
(PID.TID 0000.0001) >                 'GM_PsiX ','GM_PsiY ',
(PID.TID 0000.0001) >#uvel is approximately uvelmass divided by initial hfac, so we dont output the former
(PID.TID 0000.0001) >#                'UVEL    ','VVEL    ','WVEL     ',
(PID.TID 0000.0001) >#full 3D temperature fluxes : 'DFxE_TH ','DFyE_TH ','DFrE_TH ','DFrI_TH ','ADVx_TH ','ADVy_TH ','ADVr_TH ',
(PID.TID 0000.0001) >#but for present computations I only need the vertically integrated horizontal components (see trsp_3d_set2)
(PID.TID 0000.0001) >   filename(3) = 'trsp_3d_set1',
(PID.TID 0000.0001) >#---
(PID.TID 0000.0001) >  frequency(4) = 2635200.0,
(PID.TID 0000.0001) >   fields(1:8,4) = 'DFxE_TH ','DFyE_TH ','ADVx_TH ','ADVy_TH ',
(PID.TID 0000.0001) >                 'DFxE_SLT','DFyE_SLT','ADVx_SLT','ADVy_SLT',
(PID.TID 0000.0001) >   filename(4) = 'trsp_3d_set2',
(PID.TID 0000.0001) >#vertically integrate fields we only use to compute vertically integr.
(PID.TID 0000.0001) >#meridional transports (also omit vertical transports, both to save space)
(PID.TID 0000.0001) >#---
(PID.TID 0000.0001) >  frequency(5) = -2635200.0,
(PID.TID 0000.0001) >   fields(1:6,5) = 'ETAN    ','SIheff  ','SIhsnow ',
(PID.TID 0000.0001) >                 'SIarea  ','sIceLoad','PHIBOT  ',
(PID.TID 0000.0001) >#  filename(5) = 'budg2d_snap_set1',
(PID.TID 0000.0001) >   timePhase(5)= 0.,
(PID.TID 0000.0001) >   fileFlags(5) = 'D       ',
(PID.TID 0000.0001) >#---
(PID.TID 0000.0001) >  frequency(6) = -2635200.0,
(PID.TID 0000.0001) >   fields(1:2,6) = 'THETA   ','SALT    ',
(PID.TID 0000.0001) >#  filename(6) = 'budg2d_snap_set2',
(PID.TID 0000.0001) >   timePhase(6)= 0.,
(PID.TID 0000.0001) >   fileFlags(6) = 'DI      ',
(PID.TID 0000.0001) >#---
(PID.TID 0000.0001) >  frequency(7) = 2635200.0,
(PID.TID 0000.0001) >   fields(1:7,7) = 'oceFWflx','SIatmFW ','TFLUX   ','SItflux ',
(PID.TID 0000.0001) >                   'SFLUX   ','oceQsw  ','oceSPflx',
(PID.TID 0000.0001) >#  filename(7) = 'budg2d_zflux_set1',
(PID.TID 0000.0001) >   fileFlags(7) = 'D       ',
(PID.TID 0000.0001) >#---
(PID.TID 0000.0001) >  frequency(8) = 2635200.0,
(PID.TID 0000.0001) >   fields(1:13,8) ='UVELMASS','VVELMASS',
(PID.TID 0000.0001) >                 'ADVx_TH ','ADVy_TH ','DFxE_TH ','DFyE_TH ',
(PID.TID 0000.0001) >                 'ADVx_SLT','ADVy_SLT','DFxE_SLT','DFyE_SLT',
(PID.TID 0000.0001) >#the following are not transports but tendencies
(PID.TID 0000.0001) >                 'oceSPtnd','AB_gT   ','AB_gS   ',
(PID.TID 0000.0001) >#  filename(8) = 'budg2d_hflux_set2',
(PID.TID 0000.0001) >   fileFlags(8) = 'DI      ',
(PID.TID 0000.0001) >#---
(PID.TID 0000.0001) >  frequency(9) = 2635200.0,
(PID.TID 0000.0001) >   fields(1:8,9) ='ADVxHEFF','ADVyHEFF','DFxEHEFF','DFyEHEFF',
(PID.TID 0000.0001) >                 'ADVxSNOW','ADVySNOW','DFxESNOW','DFyESNOW',
(PID.TID 0000.0001) >#  filename(9) = 'budg2d_hflux_set1',
(PID.TID 0000.0001) >   fileFlags(9) = 'D       ',
(PID.TID 0000.0001) >#---
(PID.TID 0000.0001) ># this one is important because it activates the vertical advection diags
(PID.TID 0000.0001) >  frequency(10) = 2635200.0,
(PID.TID 0000.0001) >   fields(1:7,10) = 'ADVr_TH ','DFrE_TH ','DFrI_TH ',
(PID.TID 0000.0001) >                  'ADVr_SLT','DFrE_SLT','DFrI_SLT',
(PID.TID 0000.0001) >                  'WVELMASS',
(PID.TID 0000.0001) >#  filename(10) = 'budg2d_zflux_set3_11',
(PID.TID 0000.0001) >   levels(1, 10)= 11.,
(PID.TID 0000.0001) >   fileFlags(10) = 'D       ',
(PID.TID 0000.0001) >#---
(PID.TID 0000.0001) >  frequency(11) = 2635200.0,
(PID.TID 0000.0001) >   fields(1:10,11) ='SRELAX  ','TRELAX  ','WTHMASS ','WSLTMASS',
(PID.TID 0000.0001) >                 'oceSflux','oceQnet ','SIatmQnt',
(PID.TID 0000.0001) >                 'SIaaflux','SIsnPrcp','SIacSubl',
(PID.TID 0000.0001) >#  filename(11) = 'budg2d_zflux_set2',
(PID.TID 0000.0001) >   fileFlags(11) = 'D       ',
(PID.TID 0000.0001) >#---
(PID.TID 0000.0001) >  frequency(12) = 2635200.0,
(PID.TID 0000.0001) >   fields(1:13,12) ='UVELMASS','VVELMASS',
(PID.TID 0000.0001) >                 'ADVx_TH ','ADVy_TH ','DFxE_TH ','DFyE_TH ',
(PID.TID 0000.0001) >                 'ADVx_SLT','ADVy_SLT','DFxE_SLT','DFyE_SLT',
(PID.TID 0000.0001) >                 'oceSPtnd','AB_gT   ','AB_gS   ',
(PID.TID 0000.0001) >#  filename(12) = 'budg2d_hflux_set3_11',
(PID.TID 0000.0001) >   levels(1:40,12) = 11.,12.,13.,14.,15.,16.,17.,18.,19.,20.,
(PID.TID 0000.0001) >                     21.,22.,23.,24.,25.,26.,27.,28.,29.,30.,
(PID.TID 0000.0001) >                     31.,32.,33.,34.,35.,36.,37.,38.,39.,40.,
(PID.TID 0000.0001) >                     41.,42.,43.,44.,45.,46.,47.,48.,49.,50.,
(PID.TID 0000.0001) >   fileFlags(12) = 'DI      ',
(PID.TID 0000.0001) >#---
(PID.TID 0000.0001) >  frequency(13) = -2635200.0,
(PID.TID 0000.0001) >   fields(1:2,13) = 'THETA   ','SALT    ',
(PID.TID 0000.0001) >#  filename(13) = 'budg2d_snap_set3_11',
(PID.TID 0000.0001) >   timePhase(13)= 0.,
(PID.TID 0000.0001) >   levels(1:40,13) = 11.,12.,13.,14.,15.,16.,17.,18.,19.,20.,
(PID.TID 0000.0001) >                     21.,22.,23.,24.,25.,26.,27.,28.,29.,30.,
(PID.TID 0000.0001) >                     31.,32.,33.,34.,35.,36.,37.,38.,39.,40.,
(PID.TID 0000.0001) >                     41.,42.,43.,44.,45.,46.,47.,48.,49.,50.,
(PID.TID 0000.0001) >   fileFlags(13) = 'DI      ',
(PID.TID 0000.0001) >#---
(PID.TID 0000.0001) >  frequency(14) = 2635200.0,
(PID.TID 0000.0001) >   fields(1:8,14) = 'DFxE_TH ','DFyE_TH ','ADVx_TH ','ADVy_TH ',
(PID.TID 0000.0001) >                 'DFxE_SLT','DFyE_SLT','ADVx_SLT','ADVy_SLT',
(PID.TID 0000.0001) >#  filename(14) = 'trsp_2d_set1',
(PID.TID 0000.0001) >#vertically integrate fields we only use to compute vertically integr.
(PID.TID 0000.0001) >#meridional transports (also omit vertical transports, both to save space)
(PID.TID 0000.0001) >   fileFlags(14) = ' I      ',
(PID.TID 0000.0001) >#---
(PID.TID 0000.0001) >  frequency(15) = 2635200.0,
(PID.TID 0000.0001) >   fields(1:3,15) = 'RHOAnoma','PHIHYD  ','oceSPtnd',
(PID.TID 0000.0001) >#  filename(15) = 'state_3d_set2',
(PID.TID 0000.0001) >#---
(PID.TID 0000.0001) >  frequency(16) = 2635200.0,
(PID.TID 0000.0001) >   fields(1:7,16) = 'ADVr_TH ','DFrE_TH ','DFrI_TH ',
(PID.TID 0000.0001) >        'ADVr_SLT','DFrE_SLT','DFrI_SLT','WVELMASS',
(PID.TID 0000.0001) >#  filename(16) = 'trsp_3d_set3',
(PID.TID 0000.0001) >#---
(PID.TID 0000.0001) >  frequency(17) = 2635200.0,
(PID.TID 0000.0001) >   fields(1:7,17) = 'TFLUX   ','SItflux ','SFLUX   ',
(PID.TID 0000.0001) >        'oceQsw  ','oceSPflx','SIsnPrcp','SIacSubl',
(PID.TID 0000.0001) >#  filename(17) = 'state_2d_set2',
(PID.TID 0000.0001) >#---
(PID.TID 0000.0001) > &
(PID.TID 0000.0001) >#
(PID.TID 0000.0001) >#
(PID.TID 0000.0001) ># Parameter for Diagnostics of per level statistics:
(PID.TID 0000.0001) >#-----------------
(PID.TID 0000.0001) ># for each output-stream:
(PID.TID 0000.0001) >#  stat_fname(n) : prefix of the output file name (only 8.c long) for outp.stream n
(PID.TID 0000.0001) >#  stat_freq(n):< 0 : write snap-shot output every |stat_freq| seconds
(PID.TID 0000.0001) >#               > 0 : write time-average output every stat_freq seconds
(PID.TID 0000.0001) >#  stat_phase(n)    : write at time = stat_phase + multiple of |stat_freq|
(PID.TID 0000.0001) >#  stat_region(:,n) : list of "regions" (default: 1 region only=global)
(PID.TID 0000.0001) >#  stat_fields(:,n) : list of diagnostics fields (8.c) (see "available_diagnostics.log"
(PID.TID 0000.0001) >#                 file for the list of all available diag. in this particular config)
(PID.TID 0000.0001) >#-----------------
(PID.TID 0000.0001) > &DIAG_STATIS_PARMS
(PID.TID 0000.0001) ># diagSt_regMaskFile='basin_masks_eccollc_90x50.bin',
(PID.TID 0000.0001) ># nSetRegMskFile=1,
(PID.TID 0000.0001) ># set_regMask(1)= 1,  1,  1,  1,  1,  1,  1,  1,  1,
(PID.TID 0000.0001) >#                 1,  1,  1,  1,  1,  1,  1,  1
(PID.TID 0000.0001) ># val_regMask(1)= 1., 2., 3., 4., 5., 6., 7., 8., 9.,
(PID.TID 0000.0001) >#                10.,11.,12.,13.,14.,15.,16.,17.
(PID.TID 0000.0001) >##---
(PID.TID 0000.0001) ># stat_fields(1,1)= 'ETAN    ','ETANSQ  ','DETADT2 ',
(PID.TID 0000.0001) >#                   'UVEL    ','VVEL    ','WVEL    ',
(PID.TID 0000.0001) >#                   'THETA   ','SALT    ',
(PID.TID 0000.0001) >#    stat_fname(1)= 'dynStDiag',
(PID.TID 0000.0001) >#     stat_freq(1)= 3153600.,
(PID.TID 0000.0001) ># stat_region(1,1)=  1, 2, 3, 4, 5, 6, 7, 8, 9,
(PID.TID 0000.0001) >#                   10,11,12,13,14,15,16,17
(PID.TID 0000.0001) >##---
(PID.TID 0000.0001) ># stat_fields(1,2)= 'oceTAUX ','oceTAUY ',
(PID.TID 0000.0001) >#                   'surForcT','surForcS','TFLUX   ','SFLUX   ',
(PID.TID 0000.0001) >#                   'oceQnet ','oceSflux','oceFWflx',
(PID.TID 0000.0001) >#    stat_fname(2)= 'surfStDiag',
(PID.TID 0000.0001) >#     stat_freq(2)= 3153600.,
(PID.TID 0000.0001) ># stat_region(1,2)=  1, 2, 3, 4, 5, 6, 7, 8, 9,
(PID.TID 0000.0001) >#                   10,11,12,13,14,15,16,17
(PID.TID 0000.0001) > &
(PID.TID 0000.0001) 
(PID.TID 0000.0001) S/R DIAGNOSTICS_READPARMS, read namelist "diagnostics_list": start
(PID.TID 0000.0001) S/R DIAGNOSTICS_READPARMS, read namelist "diagnostics_list": OK
(PID.TID 0000.0001) S/R DIAGNOSTICS_READPARMS, read namelist "DIAG_STATIS_PARMS": start
(PID.TID 0000.0001) S/R DIAGNOSTICS_READPARMS, read namelist "DIAG_STATIS_PARMS": OK
(PID.TID 0000.0001)  DIAGNOSTICS_READPARMS: global parameter summary:
(PID.TID 0000.0001)  dumpAtLast = /* always write time-ave diags at the end */
(PID.TID 0000.0001)                   T
(PID.TID 0000.0001)     ;
(PID.TID 0000.0001)  diag_mnc =   /* write NetCDF output files */
(PID.TID 0000.0001)                   F
(PID.TID 0000.0001)     ;
(PID.TID 0000.0001)  diagMdsDir = /* directory for mds diagnostics output */
(PID.TID 0000.0001)               'diags'
(PID.TID 0000.0001)     ;
(PID.TID 0000.0001)  diagMdsDirCreate = /* call mkdir to create diagMdsDir */
(PID.TID 0000.0001)                   T
(PID.TID 0000.0001)     ;
(PID.TID 0000.0001)  useMissingValue = /* put MissingValue where mask = 0 */
(PID.TID 0000.0001)                   F
(PID.TID 0000.0001)     ;
(PID.TID 0000.0001)  diagCG_maxIters = /* max number of iters in diag_cg2d */
(PID.TID 0000.0001)                     300
(PID.TID 0000.0001)     ;
(PID.TID 0000.0001)  diagCG_resTarget = /* residual target for diag_cg2d */
(PID.TID 0000.0001)                 1.000000000000000E-07
(PID.TID 0000.0001)     ;
(PID.TID 0000.0001)  diagCG_pcOffDFac = /* preconditioner off-diagonal factor */
(PID.TID 0000.0001)                 9.611687812379854E-01
(PID.TID 0000.0001)     ;
(PID.TID 0000.0001) -----------------------------------------------------
(PID.TID 0000.0001)  DIAGNOSTICS_READPARMS: active diagnostics summary:
(PID.TID 0000.0001) -----------------------------------------------------
(PID.TID 0000.0001) Creating Output Stream: state_2d_set1
(PID.TID 0000.0001) Output Frequency:    2635200.000000 ; Phase:           0.000000
(PID.TID 0000.0001)  Averaging Freq.:    2635200.000000 , Phase:           0.000000 , Cycle:   1
(PID.TID 0000.0001)  missing value: -9.990000000000E+02
(PID.TID 0000.0001)  Levels:    will be set later
(PID.TID 0000.0001)  Fields:    ETAN     SIarea   SIheff   SIhsnow  DETADT2  PHIBOT   sIceLoad MXLDEPTH oceSPDep SIatmQnt
(PID.TID 0000.0001)  Fields:    SIatmFW  oceQnet  oceFWflx oceTAUX  oceTAUY  ADVxHEFF ADVyHEFF DFxEHEFF DFyEHEFF ADVxSNOW
(PID.TID 0000.0001)  Fields:    ADVySNOW DFxESNOW DFyESNOW SIuice   SIvice
(PID.TID 0000.0001) Creating Output Stream: state_3d_set1
(PID.TID 0000.0001) Output Frequency:    2635200.000000 ; Phase:           0.000000
(PID.TID 0000.0001)  Averaging Freq.:    2635200.000000 , Phase:           0.000000 , Cycle:   1
(PID.TID 0000.0001)  missing value: -9.990000000000E+02
(PID.TID 0000.0001)  Levels:    will be set later
(PID.TID 0000.0001)  Fields:    THETA    SALT     DRHODR
(PID.TID 0000.0001) Creating Output Stream: trsp_3d_set1
(PID.TID 0000.0001) Output Frequency:    2635200.000000 ; Phase:           0.000000
(PID.TID 0000.0001)  Averaging Freq.:    2635200.000000 , Phase:           0.000000 , Cycle:   1
(PID.TID 0000.0001)  missing value: -9.990000000000E+02
(PID.TID 0000.0001)  Levels:    will be set later
(PID.TID 0000.0001)  Fields:    UVELMASS VVELMASS WVELMASS GM_PsiX  GM_PsiY
(PID.TID 0000.0001) Creating Output Stream: trsp_3d_set2
(PID.TID 0000.0001) Output Frequency:    2635200.000000 ; Phase:           0.000000
(PID.TID 0000.0001)  Averaging Freq.:    2635200.000000 , Phase:           0.000000 , Cycle:   1
(PID.TID 0000.0001)  missing value: -9.990000000000E+02
(PID.TID 0000.0001)  Levels:    will be set later
(PID.TID 0000.0001)  Fields:    DFxE_TH  DFyE_TH  ADVx_TH  ADVy_TH  DFxE_SLT DFyE_SLT ADVx_SLT ADVy_SLT
(PID.TID 0000.0001) -----------------------------------------------------
(PID.TID 0000.0001)  DIAGNOSTICS_READPARMS: statistics diags. summary:
(PID.TID 0000.0001) -----------------------------------------------------
(PID.TID 0000.0001) 
(PID.TID 0000.0001) SET_PARMS: done
 ==> SYSTEM CALL (from DIAGNOSTICS_INI_IO): > mkdir -p diags <
(PID.TID 0000.0001) 
(PID.TID 0000.0001) Enter INI_VERTICAL_GRID: setInterFDr=    T ; setCenterDr=    F
(PID.TID 0000.0001) tile:   4 ; Read from file tile001.mitgrid
(PID.TID 0000.0001)   => xC yC dxF dyF rA xG yG dxV dyU rAz dxC dyC rAw rAs dxG dyG
(PID.TID 0000.0001) %MON XC_max                       =   1.7997758946678E+02
(PID.TID 0000.0001) %MON XC_min                       =  -1.7998895680928E+02
(PID.TID 0000.0001) %MON XC_mean                      =  -6.8997670631350E+00
(PID.TID 0000.0001) %MON XC_sd                        =   1.0548127462941E+02
(PID.TID 0000.0001) %MON XG_max                       =   1.8000000000000E+02
(PID.TID 0000.0001) %MON XG_min                       =  -1.7999919444240E+02
(PID.TID 0000.0001) %MON XG_mean                      =  -6.3521159278861E+00
(PID.TID 0000.0001) %MON XG_sd                        =   1.0549598176576E+02
(PID.TID 0000.0001) %MON DXC_max                      =   1.1117680031365E+05
(PID.TID 0000.0001) %MON DXC_min                      =   1.3362789164732E+04
(PID.TID 0000.0001) %MON DXC_mean                     =   7.1345115143606E+04
(PID.TID 0000.0001) %MON DXC_sd                       =   2.6107013089865E+04
(PID.TID 0000.0001) %MON DXF_max                      =   1.1117680031365E+05
(PID.TID 0000.0001) %MON DXF_min                      =   1.3491575949394E+04
(PID.TID 0000.0001) %MON DXF_mean                     =   7.1334806791260E+04
(PID.TID 0000.0001) %MON DXF_sd                       =   2.6121349328995E+04
(PID.TID 0000.0001) %MON DXG_max                      =   1.1117747335204E+05
(PID.TID 0000.0001) %MON DXG_min                      =   1.0930409249570E+04
(PID.TID 0000.0001) %MON DXG_mean                     =   7.1313583950284E+04
(PID.TID 0000.0001) %MON DXG_sd                       =   2.6131714747840E+04
(PID.TID 0000.0001) %MON DXV_max                      =   1.1117747335204E+05
(PID.TID 0000.0001) %MON DXV_min                      =   9.4742518926426E+03
(PID.TID 0000.0001) %MON DXV_mean                     =   7.1323777998314E+04
(PID.TID 0000.0001) %MON DXV_sd                       =   2.6117603792432E+04
(PID.TID 0000.0001) %MON YC_max                       =   8.9739397429324E+01
(PID.TID 0000.0001) %MON YC_min                       =  -8.1637173529390E+01
(PID.TID 0000.0001) %MON YC_mean                      =  -5.9338515025079E-01
(PID.TID 0000.0001) %MON YC_sd                        =   5.1058908630085E+01
(PID.TID 0000.0001) %MON YG_max                       =   9.0000000000000E+01
(PID.TID 0000.0001) %MON YG_min                       =  -8.1805478609906E+01
(PID.TID 0000.0001) %MON YG_mean                      =  -5.7357831765458E-01
(PID.TID 0000.0001) %MON YG_sd                        =   5.1060174609345E+01
(PID.TID 0000.0001) %MON DYC_max                      =   1.1117680031365E+05
(PID.TID 0000.0001) %MON DYC_min                      =   1.3362789164732E+04
(PID.TID 0000.0001) %MON DYC_mean                     =   7.0982792089666E+04
(PID.TID 0000.0001) %MON DYC_sd                       =   2.6607387075348E+04
(PID.TID 0000.0001) %MON DYF_max                      =   1.1117680031365E+05
(PID.TID 0000.0001) %MON DYF_min                      =   1.3491575949394E+04
(PID.TID 0000.0001) %MON DYF_mean                     =   7.1000127494934E+04
(PID.TID 0000.0001) %MON DYF_sd                       =   2.6603606017547E+04
(PID.TID 0000.0001) %MON DYG_max                      =   1.1117747335204E+05
(PID.TID 0000.0001) %MON DYG_min                      =   1.0930409249570E+04
(PID.TID 0000.0001) %MON DYG_mean                     =   7.1022116512585E+04
(PID.TID 0000.0001) %MON DYG_sd                       =   2.6571715830406E+04
(PID.TID 0000.0001) %MON DYU_max                      =   1.1117747335204E+05
(PID.TID 0000.0001) %MON DYU_min                      =   9.4742518926426E+03
(PID.TID 0000.0001) %MON DYU_mean                     =   7.1004694583927E+04
(PID.TID 0000.0001) %MON DYU_sd                       =   2.6575655787476E+04
(PID.TID 0000.0001) %MON RA_max                       =   1.1896090857160E+10
(PID.TID 0000.0001) %MON RA_min                       =   2.1263387742345E+08
(PID.TID 0000.0001) %MON RA_mean                      =   5.6344293572480E+09
(PID.TID 0000.0001) %MON RA_sd                        =   3.5929461176606E+09
(PID.TID 0000.0001) %MON RAW_max                      =   1.1896090856781E+10
(PID.TID 0000.0001) %MON RAW_min                      =   1.7369571508711E+08
(PID.TID 0000.0001) %MON RAW_mean                     =   5.6355850434318E+09
(PID.TID 0000.0001) %MON RAW_sd                       =   3.5915487677190E+09
(PID.TID 0000.0001) %MON RAS_max                      =   1.1896090856781E+10
(PID.TID 0000.0001) %MON RAS_min                      =   1.7369571508711E+08
(PID.TID 0000.0001) %MON RAS_mean                     =   5.6320332286162E+09
(PID.TID 0000.0001) %MON RAS_sd                       =   3.5937184228135E+09
(PID.TID 0000.0001) %MON RAZ_max                      =   1.1891903479271E+10
(PID.TID 0000.0001) %MON RAZ_min                      =   1.0413402423292E+08
(PID.TID 0000.0001) %MON RAZ_mean                     =   5.6331824674695E+09
(PID.TID 0000.0001) %MON RAZ_sd                       =   3.5923307220197E+09
(PID.TID 0000.0001) %MON AngleCS_max                  =   1.0000000000000E+00
(PID.TID 0000.0001) %MON AngleCS_min                  =  -9.9996641938864E-01
(PID.TID 0000.0001) %MON AngleCS_mean                 =   4.0572930529500E-01
(PID.TID 0000.0001) %MON AngleCS_sd                   =   5.3874397836718E-01
(PID.TID 0000.0001) %MON AngleSN_max                  =   9.9996641938864E-01
(PID.TID 0000.0001) %MON AngleSN_min                  =  -1.0000000000000E+00
(PID.TID 0000.0001) %MON AngleSN_mean                 =  -4.9986154624599E-01
(PID.TID 0000.0001) %MON AngleSN_sd                   =   5.4339404779819E-01
(PID.TID 0000.0001) 
(PID.TID 0000.0001) // =======================================================
(PID.TID 0000.0001) // Calendar configuration >>> START <<<
(PID.TID 0000.0001) // =======================================================
(PID.TID 0000.0001) 
(PID.TID 0000.0001) modelstart = /* Start time of the model integration [s] */
(PID.TID 0000.0001)                 3.600000000000000E+03
(PID.TID 0000.0001)     ;
(PID.TID 0000.0001) modelend  = /* End time of the model integration [s] */
(PID.TID 0000.0001)                 6.310656000000000E+08
(PID.TID 0000.0001)     ;
(PID.TID 0000.0001) modelStep = /* Time interval for a model forward step [s] */
(PID.TID 0000.0001)                 3.600000000000000E+03
(PID.TID 0000.0001)     ;
(PID.TID 0000.0001) usingGregorianCalendar= /* Calendar Type: Gregorian Calendar */
(PID.TID 0000.0001)                   T
(PID.TID 0000.0001)     ;
(PID.TID 0000.0001) usingJulianCalendar = /* Calendar Type: Julian Calendar */
(PID.TID 0000.0001)                   F
(PID.TID 0000.0001)     ;
(PID.TID 0000.0001) usingNoLeapYearCal  = /* Calendar Type: without Leap Year */
(PID.TID 0000.0001)                   F
(PID.TID 0000.0001)     ;
(PID.TID 0000.0001) usingModelCalendar  = /* Calendar Type: Model Calendar */
(PID.TID 0000.0001)                   F
(PID.TID 0000.0001)     ;
(PID.TID 0000.0001) modelStartDate YYYYMMDD = /* Model start date YYYY-MM-DD */
(PID.TID 0000.0001)                19920101
(PID.TID 0000.0001)     ;
(PID.TID 0000.0001)   modelStartDate HHMMSS = /* Model start date HH-MM-SS  */
(PID.TID 0000.0001)                  130000
(PID.TID 0000.0001)     ;
(PID.TID 0000.0001) modelEndDate   YYYYMMDD = /* Model end date YYYY-MM-DD */
(PID.TID 0000.0001)                20111231
(PID.TID 0000.0001)     ;
(PID.TID 0000.0001)   modelEndDate   HHMMSS = /* Model end date HH-MM-SS  */
(PID.TID 0000.0001)                  120000
(PID.TID 0000.0001)     ;
(PID.TID 0000.0001) intyears = /* Number of calendar years affected by the integration */
(PID.TID 0000.0001)                      20
(PID.TID 0000.0001)     ;
(PID.TID 0000.0001) intmonths= /* Number of calendar months affected by the integration */
(PID.TID 0000.0001)                     240
(PID.TID 0000.0001)     ;
(PID.TID 0000.0001) intdays = /* Number of calendar days affected by the integration */
(PID.TID 0000.0001)                    7305
(PID.TID 0000.0001)     ;
(PID.TID 0000.0001) modelIter0 = /* Base timestep number  */
(PID.TID 0000.0001)                       1
(PID.TID 0000.0001)     ;
(PID.TID 0000.0001) modelIterEnd = /* Final timestep number  */
(PID.TID 0000.0001)                  175296
(PID.TID 0000.0001)     ;
(PID.TID 0000.0001) modelIntSteps= /* Number of model timesteps  */
(PID.TID 0000.0001)                  175295
(PID.TID 0000.0001)     ;
(PID.TID 0000.0001) 
(PID.TID 0000.0001) // =======================================================
(PID.TID 0000.0001) // Calendar configuration  >>> END <<<
(PID.TID 0000.0001) // =======================================================
(PID.TID 0000.0001) 
(PID.TID 0000.0001) GAD_INIT_FIXED: GAD_OlMinSize=  2  0  2
(PID.TID 0000.0001) 
(PID.TID 0000.0001) // ===================================
(PID.TID 0000.0001) // GAD parameters :
(PID.TID 0000.0001) // ===================================
(PID.TID 0000.0001) tempAdvScheme =   /* Temp. Horiz.Advection scheme selector */
(PID.TID 0000.0001)                      30
(PID.TID 0000.0001)     ;
(PID.TID 0000.0001) tempVertAdvScheme =   /* Temp. Vert. Advection scheme selector */
(PID.TID 0000.0001)                       3
(PID.TID 0000.0001)     ;
(PID.TID 0000.0001) tempMultiDimAdvec =   /* use Muti-Dim Advec method for Temp */
(PID.TID 0000.0001)                   T
(PID.TID 0000.0001)     ;
(PID.TID 0000.0001) tempSOM_Advection = /* use 2nd Order Moment Advection for Temp */
(PID.TID 0000.0001)                   F
(PID.TID 0000.0001)     ;
(PID.TID 0000.0001) AdamsBashforthGt = /* apply Adams-Bashforth extrapolation on Gt */
(PID.TID 0000.0001)                   F
(PID.TID 0000.0001)     ;
(PID.TID 0000.0001) AdamsBashforth_T = /* apply Adams-Bashforth extrapolation on Temp */
(PID.TID 0000.0001)                   F
(PID.TID 0000.0001)     ;
(PID.TID 0000.0001) saltAdvScheme =   /* Salt. Horiz.advection scheme selector */
(PID.TID 0000.0001)                      30
(PID.TID 0000.0001)     ;
(PID.TID 0000.0001) saltVertAdvScheme =   /* Salt. Vert. Advection scheme selector */
(PID.TID 0000.0001)                       3
(PID.TID 0000.0001)     ;
(PID.TID 0000.0001) saltMultiDimAdvec =   /* use Muti-Dim Advec method for Salt */
(PID.TID 0000.0001)                   T
(PID.TID 0000.0001)     ;
(PID.TID 0000.0001) saltSOM_Advection = /* use 2nd Order Moment Advection for Salt */
(PID.TID 0000.0001)                   F
(PID.TID 0000.0001)     ;
(PID.TID 0000.0001) AdamsBashforthGs = /* apply Adams-Bashforth extrapolation on Gs */
(PID.TID 0000.0001)                   F
(PID.TID 0000.0001)     ;
(PID.TID 0000.0001) AdamsBashforth_S = /* apply Adams-Bashforth extrapolation on Salt */
(PID.TID 0000.0001)                   F
(PID.TID 0000.0001)     ;
(PID.TID 0000.0001) // ===================================
(PID.TID 0000.0001) 
(PID.TID 0000.0001) // =======================================================
(PID.TID 0000.0001) // External forcing (EXF) configuration >>> START <<<
(PID.TID 0000.0001) // =======================================================
(PID.TID 0000.0001) 
(PID.TID 0000.0001)  EXF general parameters:
(PID.TID 0000.0001) 
(PID.TID 0000.0001) exf_iprec = /* exf file precision */
(PID.TID 0000.0001)                      32
(PID.TID 0000.0001)     ;
(PID.TID 0000.0001) useExfYearlyFields = /* add extension _YEAR to input file names */
(PID.TID 0000.0001)                   T
(PID.TID 0000.0001)     ;
(PID.TID 0000.0001) twoDigitYear = /* use 2-digit year extension */
(PID.TID 0000.0001)                   F
(PID.TID 0000.0001)     ;
(PID.TID 0000.0001) useExfCheckRange = /* check for fields range */
(PID.TID 0000.0001)                   F
(PID.TID 0000.0001)     ;
(PID.TID 0000.0001) exf_output_interp = /* output directly interpolation result */
(PID.TID 0000.0001)                   F
(PID.TID 0000.0001)     ;
(PID.TID 0000.0001) exf_debugLev = /* select EXF-debug printing level */
(PID.TID 0000.0001)                       1
(PID.TID 0000.0001)     ;
(PID.TID 0000.0001) exf_monFreq  = /* EXF monitor frequency [ s ] */
(PID.TID 0000.0001)                 7.200000000000000E+03
(PID.TID 0000.0001)     ;
(PID.TID 0000.0001) repeatPeriod = /* period for cycling forcing dataset [ s ] */
(PID.TID 0000.0001)                 0.000000000000000E+00
(PID.TID 0000.0001)     ;
(PID.TID 0000.0001) climTempFreeze= /* Minimum climatological temperature [deg.C] */
(PID.TID 0000.0001)                -1.900000000000000E+00
(PID.TID 0000.0001)     ;
(PID.TID 0000.0001) windStressMax = /* Maximum absolute windstress [ Pa ] */
(PID.TID 0000.0001)                 2.000000000000000E+00
(PID.TID 0000.0001)     ;
(PID.TID 0000.0001) stressIsOnCgrid = /* set u,v_stress on Arakawa C-grid */
(PID.TID 0000.0001)                   F
(PID.TID 0000.0001)     ;
(PID.TID 0000.0001) rotateStressOnAgrid = /* rotate u,v_stress on Arakawa A-grid */
(PID.TID 0000.0001)                   T
(PID.TID 0000.0001)     ;
(PID.TID 0000.0001) cen2kel = /* conversion of deg. Centigrade to Kelvin [K] */
(PID.TID 0000.0001)                 2.731500000000000E+02
(PID.TID 0000.0001)     ;
(PID.TID 0000.0001) gravity_mks= /* gravitational acceleration [m/s^2] */
(PID.TID 0000.0001)                 9.810000000000000E+00
(PID.TID 0000.0001)     ;
(PID.TID 0000.0001) atmrho =  /* mean atmospheric density [kg/m^3] */
(PID.TID 0000.0001)                 1.200000000000000E+00
(PID.TID 0000.0001)     ;
(PID.TID 0000.0001) atmcp =  /* mean atmospheric specific heat [J/kg/K] */
(PID.TID 0000.0001)                 1.005000000000000E+03
(PID.TID 0000.0001)     ;
(PID.TID 0000.0001) flamb =  /* latent heat of evaporation [J/kg] */
(PID.TID 0000.0001)                 2.500000000000000E+06
(PID.TID 0000.0001)     ;
(PID.TID 0000.0001) flami =  /* latent heat of pure-ice melting [J/kg] */
(PID.TID 0000.0001)                 3.340000000000000E+05
(PID.TID 0000.0001)     ;
(PID.TID 0000.0001) cvapor_fac = /* const. for Saturation calculation [?] */
(PID.TID 0000.0001)                 6.403800000000000E+05
(PID.TID 0000.0001)     ;
(PID.TID 0000.0001) cvapor_exp = /* const. for Saturation calculation [?] */
(PID.TID 0000.0001)                 5.107400000000000E+03
(PID.TID 0000.0001)     ;
(PID.TID 0000.0001) cvapor_fac_ice= /* const. for Saturation calculation [?] */
(PID.TID 0000.0001)                 1.163780000000000E+07
(PID.TID 0000.0001)     ;
(PID.TID 0000.0001) cvapor_exp_ice= /* const. for Saturation calculation [?] */
(PID.TID 0000.0001)                 5.897800000000000E+03
(PID.TID 0000.0001)     ;
(PID.TID 0000.0001) humid_fac = /* humidity coef. in virtual temp. [(kg/kg)^-1] */
(PID.TID 0000.0001)                 6.060000000000000E-01
(PID.TID 0000.0001)     ;
(PID.TID 0000.0001) gamma_blk = /* adiabatic lapse rate [?] */
(PID.TID 0000.0001)                 1.000000000000000E-02
(PID.TID 0000.0001)     ;
(PID.TID 0000.0001) saltsat = /* reduction of Qsat over salty water [-] */
(PID.TID 0000.0001)                 9.800000000000000E-01
(PID.TID 0000.0001)     ;
(PID.TID 0000.0001) noNegativeEvap = /* prevent negative Evaporation */
(PID.TID 0000.0001)                   F
(PID.TID 0000.0001)     ;
(PID.TID 0000.0001) sstExtrapol = /* extrapolation coeff from lev. 1 & 2 to surf [-] */
(PID.TID 0000.0001)                 0.000000000000000E+00
(PID.TID 0000.0001)     ;
(PID.TID 0000.0001) cDrag_1 = /* coef used in drag calculation [?] */
(PID.TID 0000.0001)                 2.700000000000000E-03
(PID.TID 0000.0001)     ;
(PID.TID 0000.0001) cDrag_2 = /* coef used in drag calculation [?] */
(PID.TID 0000.0001)                 1.420000000000000E-04
(PID.TID 0000.0001)     ;
(PID.TID 0000.0001) cDrag_3 = /* coef used in drag calculation [?] */
(PID.TID 0000.0001)                 7.640000000000000E-05
(PID.TID 0000.0001)     ;
(PID.TID 0000.0001) cStanton_1 = /* coef used in Stanton number calculation [?] */
(PID.TID 0000.0001)                 3.270000000000000E-02
(PID.TID 0000.0001)     ;
(PID.TID 0000.0001) cStanton_2 = /* coef used in Stanton number calculation [?] */
(PID.TID 0000.0001)                 1.800000000000000E-02
(PID.TID 0000.0001)     ;
(PID.TID 0000.0001) cDalton = /* coef used in Dalton number calculation [?] */
(PID.TID 0000.0001)                 3.460000000000000E-02
(PID.TID 0000.0001)     ;
(PID.TID 0000.0001) exf_scal_BulkCdn= /* Drag coefficient scaling factor [-] */
(PID.TID 0000.0001)                 1.000000000000000E+00
(PID.TID 0000.0001)     ;
(PID.TID 0000.0001) zolmin = /* minimum stability parameter [?] */
(PID.TID 0000.0001)                -1.000000000000000E+02
(PID.TID 0000.0001)     ;
(PID.TID 0000.0001) psim_fac = /* coef used in turbulent fluxes calculation [-] */
(PID.TID 0000.0001)                 5.000000000000000E+00
(PID.TID 0000.0001)     ;
(PID.TID 0000.0001) zref =  /* reference height [ m ] */
(PID.TID 0000.0001)                 1.000000000000000E+01
(PID.TID 0000.0001)     ;
(PID.TID 0000.0001) hu =  /* height of mean wind [ m ] */
(PID.TID 0000.0001)                 1.000000000000000E+01
(PID.TID 0000.0001)     ;
(PID.TID 0000.0001) ht =  /* height of mean temperature [ m ] */
(PID.TID 0000.0001)                 2.000000000000000E+00
(PID.TID 0000.0001)     ;
(PID.TID 0000.0001) hq =  /* height of mean spec.humidity [ m ] */
(PID.TID 0000.0001)                 2.000000000000000E+00
(PID.TID 0000.0001)     ;
(PID.TID 0000.0001) uMin = /* minimum wind speed [m/s] */
(PID.TID 0000.0001)                 5.000000000000000E-01
(PID.TID 0000.0001)     ;
(PID.TID 0000.0001) useStabilityFct_overIce= /* transfert Coeffs over sea-ice depend on stability */
(PID.TID 0000.0001)                   F
(PID.TID 0000.0001)     ;
(PID.TID 0000.0001) exf_iceCd = /* drag coefficient over sea-ice (fixed) [-] */
(PID.TID 0000.0001)                 1.630000000000000E-03
(PID.TID 0000.0001)     ;
(PID.TID 0000.0001) exf_iceCe = /* transfert coeff. over sea-ice, for Evap (fixed) [-] */
(PID.TID 0000.0001)                 1.630000000000000E-03
(PID.TID 0000.0001)     ;
(PID.TID 0000.0001) exf_iceCh = /* transfert coeff. over sea-ice, Sens.Heat.(fixed)[-] */
(PID.TID 0000.0001)                 1.630000000000000E-03
(PID.TID 0000.0001)     ;
(PID.TID 0000.0001) exf_albedo =  /* Sea-water albedo [-] */
(PID.TID 0000.0001)                 1.000000000000000E-01
(PID.TID 0000.0001)     ;
(PID.TID 0000.0001) useExfZenAlbedo = /* Sea-water albedo varies with zenith angle */
(PID.TID 0000.0001)                   T
(PID.TID 0000.0001)     ;
(PID.TID 0000.0001) select_ZenAlbedo = /* Sea-water albedo computation method */
(PID.TID 0000.0001)                       1
(PID.TID 0000.0001)     ;
(PID.TID 0000.0001) useExfZenIncoming = /* compute incoming solar radiation */
(PID.TID 0000.0001)                   T
(PID.TID 0000.0001)     ;
(PID.TID 0000.0001) ocean_emissivity = /* longwave ocean-surface emissivity [-] */
(PID.TID 0000.0001)                 9.700000000000000E-01
(PID.TID 0000.0001)     ;
(PID.TID 0000.0001) ice_emissivity = /* longwave seaice emissivity [-] */
(PID.TID 0000.0001)                 9.500000000000000E-01
(PID.TID 0000.0001)     ;
(PID.TID 0000.0001) snow_emissivity = /* longwave snow  emissivity [-] */
(PID.TID 0000.0001)                 9.500000000000000E-01
(PID.TID 0000.0001)     ;
(PID.TID 0000.0001) 
(PID.TID 0000.0001)  EXF main CPP flags:
(PID.TID 0000.0001) 
(PID.TID 0000.0001) // USE_EXF_INTERPOLATION:              defined
(PID.TID 0000.0001) // ALLOW_ATM_TEMP:                     defined
(PID.TID 0000.0001) // ALLOW_ATM_WIND (useAtmWind):    NOT defined
(PID.TID 0000.0001) // ALLOW_DOWNWARD_RADIATION:           defined
(PID.TID 0000.0001) // ALLOW_BULKFORMULAE:                 defined
(PID.TID 0000.0001) 
(PID.TID 0000.0001)    Zonal wind stress forcing starts at               10800.
(PID.TID 0000.0001)    Zonal wind stress forcing period is               21600.
(PID.TID 0000.0001)    Zonal wind stress forcing repeat-cycle is             0.
(PID.TID 0000.0001)    Zonal wind stress forcing is read from file:
(PID.TID 0000.0001)    >> eccov4r2_ustr <<
(PID.TID 0000.0001)    assume "ustress" on model-grid (no interpolation)
(PID.TID 0000.0001) 
(PID.TID 0000.0001)    Meridional wind stress forcing starts at          10800.
(PID.TID 0000.0001)    Meridional wind stress forcing period is          21600.
(PID.TID 0000.0001)    Meridional wind stress forcing rep-cycle is           0.
(PID.TID 0000.0001)    Meridional wind stress forcing is read from file:
(PID.TID 0000.0001)    >> eccov4r2_vstr <<
(PID.TID 0000.0001)    assume "vstress" on model-grid (no interpolation)
(PID.TID 0000.0001)     Interp. U & V comp. together: uvInterp_stress =    F
(PID.TID 0000.0001) 
(PID.TID 0000.0001)    Surface wind speed starts at                      10800.
(PID.TID 0000.0001)    Surface wind speed period is                      21600.
(PID.TID 0000.0001)    Surface wind speed repeat-cycle is                    0.
(PID.TID 0000.0001)    Surface wind speed is read from file:
(PID.TID 0000.0001)    >> eccov4r2_wspeed <<
(PID.TID 0000.0001)    assume "wspeed" on model-grid (no interpolation)
(PID.TID 0000.0001) 
(PID.TID 0000.0001)    Atmospheric temperature starts at                 10800.
(PID.TID 0000.0001)    Atmospheric temperature period is                 21600.
(PID.TID 0000.0001)    Atmospheric temperature repeat-cycle is               0.
(PID.TID 0000.0001)    Atmospheric temperature is read from file:
(PID.TID 0000.0001)    >> eccov4r2_tmp2m_degC <<
(PID.TID 0000.0001)    assume "atemp" on model-grid (no interpolation)
(PID.TID 0000.0001) 
(PID.TID 0000.0001)    Atmospheric specific humidity starts at           10800.
(PID.TID 0000.0001)    Atmospheric specific humidity period is           21600.
(PID.TID 0000.0001)    Atmospheric specific humidity rep-cycle is            0.
(PID.TID 0000.0001)    Atmospheric specific humidity is read from file:
(PID.TID 0000.0001)    >> eccov4r2_spfh2m <<
(PID.TID 0000.0001)    assume "aqh" on model-grid (no interpolation)
(PID.TID 0000.0001) 
(PID.TID 0000.0001) // ALLOW_READ_TURBFLUXES:          NOT defined
(PID.TID 0000.0001) // EXF_READ_EVAP:                  NOT defined
(PID.TID 0000.0001) 
(PID.TID 0000.0001)    Precipitation data starts at                      10800.
(PID.TID 0000.0001)    Precipitation data period is                      21600.
(PID.TID 0000.0001)    Precipitation data repeat-cycle is                    0.
(PID.TID 0000.0001)    Precipitation data is read from file:
(PID.TID 0000.0001)    >> eccov4r2_rain <<
(PID.TID 0000.0001)    assume "precip" on model-grid (no interpolation)
(PID.TID 0000.0001) 
(PID.TID 0000.0001) // ALLOW_RUNOFF:                       defined
(PID.TID 0000.0001)    Runoff data period is                               -12.
(PID.TID 0000.0001)    Runoff data is read from file:
(PID.TID 0000.0001)    >> runoff.bin <<
(PID.TID 0000.0001)    assume "runoff" on model-grid (no interpolation)
(PID.TID 0000.0001) 
(PID.TID 0000.0001) // ALLOW_RUNOFTEMP:                NOT defined
(PID.TID 0000.0001) // ALLOW_SALTFLX:                      defined
(PID.TID 0000.0001) 
(PID.TID 0000.0001)    Downward shortwave flux starts at                 10800.
(PID.TID 0000.0001)    Downward shortwave flux period is                 21600.
(PID.TID 0000.0001)    Downward shortwave flux repeat-cycle is               0.
(PID.TID 0000.0001)    Downward shortwave flux is read from file:
(PID.TID 0000.0001)    >> eccov4r2_dsw <<
(PID.TID 0000.0001)    assume "swdown" on model-grid (no interpolation)
(PID.TID 0000.0001) 
(PID.TID 0000.0001)    Downward longwave flux starts at                  10800.
(PID.TID 0000.0001)    Downward longwave flux period is                  21600.
(PID.TID 0000.0001)    Downward longwave flux repeat-cycle is                0.
(PID.TID 0000.0001)    Downward longwave flux is read from file:
(PID.TID 0000.0001)    >> eccov4r2_dlw <<
(PID.TID 0000.0001)    assume "lwdown" on model-grid (no interpolation)
(PID.TID 0000.0001) 
(PID.TID 0000.0001) // =======================================================
(PID.TID 0000.0001) // External forcing (EXF) climatology configuration :
(PID.TID 0000.0001) // =======================================================
(PID.TID 0000.0001) 
(PID.TID 0000.0001) // ALLOW_CLIMSST_RELAXATION:           defined
(PID.TID 0000.0001)    climsst relaxation is NOT used
(PID.TID 0000.0001) 
(PID.TID 0000.0001) // ALLOW_CLIMSSS_RELAXATION:           defined
(PID.TID 0000.0001)    climsss relaxation is NOT used
(PID.TID 0000.0001) 
(PID.TID 0000.0001) // =======================================================
(PID.TID 0000.0001) // External forcing (EXF) configuration  >>> END <<<
(PID.TID 0000.0001) // =======================================================
(PID.TID 0000.0001) 
(PID.TID 0000.0001) // =======================================================
(PID.TID 0000.0001) // Seaice configuration (SEAICE_PARM01) >>> START <<<
(PID.TID 0000.0001) // =======================================================
(PID.TID 0000.0001) 
(PID.TID 0000.0001)    Seaice time stepping configuration   > START <
(PID.TID 0000.0001)    ----------------------------------------------
(PID.TID 0000.0001) SEAICE_deltaTtherm= /* thermodynamic timestep */
(PID.TID 0000.0001)                 3.600000000000000E+03
(PID.TID 0000.0001)     ;
(PID.TID 0000.0001) SEAICE_deltaTdyn  = /* dynamic timestep */
(PID.TID 0000.0001)                 3.600000000000000E+03
(PID.TID 0000.0001)     ;
(PID.TID 0000.0001) SEAICE_deltaTevp  = /* EVP timestep */
(PID.TID 0000.0001)                 1.234567000000000E+05
(PID.TID 0000.0001)     ;
(PID.TID 0000.0001) SEAICEuseBDF2  = /* use backw. differencing for mom. eq. */
(PID.TID 0000.0001)                   F
(PID.TID 0000.0001)     ;
(PID.TID 0000.0001) SEAICErestoreUnderIce  = /* restore T and S under ice */
(PID.TID 0000.0001)                   T
(PID.TID 0000.0001)     ;
(PID.TID 0000.0001) 
(PID.TID 0000.0001)    Seaice dynamics configuration   > START <
(PID.TID 0000.0001)    ------------------------------------------
(PID.TID 0000.0001) SEAICEuseDYNAMICS = /* use dynamics */
(PID.TID 0000.0001)                   T
(PID.TID 0000.0001)     ;
(PID.TID 0000.0001) model grid type   = /* type of sea ice model grid */
(PID.TID 0000.0001)               'C-GRID'
(PID.TID 0000.0001)     ;
(PID.TID 0000.0001) SEAICEuseStrImpCpl = /* use strongly implicit coupling */
(PID.TID 0000.0001)                   F
(PID.TID 0000.0001)     ;
(PID.TID 0000.0001) SEAICEusePicardAsPrecon = /* Picard as preconditioner */
(PID.TID 0000.0001)                   F
(PID.TID 0000.0001)     ;
(PID.TID 0000.0001) SEAICEuseLSR      = /* use default Picard-LSR solver */
(PID.TID 0000.0001)                   T
(PID.TID 0000.0001)     ;
(PID.TID 0000.0001) SEAICEuseKrylov   = /* use Picard-Krylov solver */
(PID.TID 0000.0001)                   F
(PID.TID 0000.0001)     ;
(PID.TID 0000.0001) SEAICEuseEVP      = /* use EVP solver rather than LSR */
(PID.TID 0000.0001)                   F
(PID.TID 0000.0001)     ;
(PID.TID 0000.0001) SEAICEuseJFNK     = /* use JFNK solver */
(PID.TID 0000.0001)                   F
(PID.TID 0000.0001)     ;
(PID.TID 0000.0001) SEAICEuseFREEDRIFT = /* use free drift solution */
(PID.TID 0000.0001)                   F
(PID.TID 0000.0001)     ;
(PID.TID 0000.0001) OCEAN_drag        = /* air-ocean drag coefficient */
(PID.TID 0000.0001)                 1.000000000000000E-03
(PID.TID 0000.0001)     ;
(PID.TID 0000.0001) SEAICE_drag       = /* air-ice drag coefficient */
(PID.TID 0000.0001)                 2.000000000000000E-03
(PID.TID 0000.0001)     ;
(PID.TID 0000.0001) SEAICE_drag_south      = /* Southern Ocean SEAICE_drag */
(PID.TID 0000.0001)                 2.000000000000000E-03
(PID.TID 0000.0001)     ;
(PID.TID 0000.0001) SEAICE_waterDrag  = /* water-ice drag * density */
(PID.TID 0000.0001)                 5.500000000000000E+00
(PID.TID 0000.0001)     ;
(PID.TID 0000.0001) SEAICE_waterDrag_south = /* Southern Ocean waterDrag */
(PID.TID 0000.0001)                 5.500000000000000E+00
(PID.TID 0000.0001)     ;
(PID.TID 0000.0001) SEAICEuseTilt     = /* include surface tilt in dyna. */
(PID.TID 0000.0001)                   F
(PID.TID 0000.0001)     ;
(PID.TID 0000.0001) SEAICEuseTEM      = /* use truncated ellipse rheology */
(PID.TID 0000.0001)                   F
(PID.TID 0000.0001)     ;
(PID.TID 0000.0001) SEAICE_strength   = /* sea-ice strength Pstar */
(PID.TID 0000.0001)                 2.750000000000000E+04
(PID.TID 0000.0001)     ;
(PID.TID 0000.0001) SEAICE_cStar      = /* sea-ice strength parameter cStar */
(PID.TID 0000.0001)                 2.000000000000000E+01
(PID.TID 0000.0001)     ;
(PID.TID 0000.0001) SEAICEpressReplFac= /* press. replacement method factor */
(PID.TID 0000.0001)                 1.000000000000000E+00
(PID.TID 0000.0001)     ;
(PID.TID 0000.0001) SEAICE_tensilFac  = /* sea-ice tensile strength factor */
(PID.TID 0000.0001)                 0.000000000000000E+00
(PID.TID 0000.0001)     ;
(PID.TID 0000.0001) SEAICE_tensilDepth= /* crit. depth for tensile strength */
(PID.TID 0000.0001)                 0.000000000000000E+00
(PID.TID 0000.0001)     ;
(PID.TID 0000.0001) SEAICEpresH0   = /* sea-ice strength Heff threshold */
(PID.TID 0000.0001)                 2.000000000000000E+00
(PID.TID 0000.0001)     ;
(PID.TID 0000.0001) SEAICEpresPow0 = /* exponent for Heff<SEAICEpresH0 */
(PID.TID 0000.0001)                       1
(PID.TID 0000.0001)     ;
(PID.TID 0000.0001) SEAICEpresPow1 = /* exponent for Heff>SEAICEpresH0 */
(PID.TID 0000.0001)                       3
(PID.TID 0000.0001)     ;
(PID.TID 0000.0001) SEAICEetaZmethod = /* method computing eta at Z-point */
(PID.TID 0000.0001)                       0
(PID.TID 0000.0001)     ;
(PID.TID 0000.0001) SEAICE_zetaMin    = /* lower bound for viscosity */
(PID.TID 0000.0001)                 0.000000000000000E+00
(PID.TID 0000.0001)     ;
(PID.TID 0000.0001) SEAICE_eccen    = /* elliptical yield curve eccent */
(PID.TID 0000.0001)                 2.000000000000000E+00
(PID.TID 0000.0001)     ;
(PID.TID 0000.0001) SEAICEstressFactor    = /* wind stress scaling factor */
(PID.TID 0000.0001)                 1.000000000000000E+00
(PID.TID 0000.0001)     ;
(PID.TID 0000.0001) SEAICE_airTurnAngle    = /* air-ice turning angle */
(PID.TID 0000.0001)                 0.000000000000000E+00
(PID.TID 0000.0001)     ;
(PID.TID 0000.0001) SEAICE_waterTurnAngle  = /* ice-water turning angle */
(PID.TID 0000.0001)                 0.000000000000000E+00
(PID.TID 0000.0001)     ;
(PID.TID 0000.0001) SEAICEuseMetricTerms = /* use metric terms */
(PID.TID 0000.0001)                   T
(PID.TID 0000.0001)     ;
(PID.TID 0000.0001) SEAICE_no_slip    = /* no slip boundary conditions */
(PID.TID 0000.0001)                   F
(PID.TID 0000.0001)     ;
(PID.TID 0000.0001) SEAICE_2ndOrderBC = /* 2nd order no slip boundary conditions */
(PID.TID 0000.0001)                   F
(PID.TID 0000.0001)     ;
(PID.TID 0000.0001) SEAICE_clipVeloctities = /* impose max. vels. */
(PID.TID 0000.0001)                   T
(PID.TID 0000.0001)     ;
(PID.TID 0000.0001) useHB87stressCoupling  = /* altern. ice-ocean stress */
(PID.TID 0000.0001)                   F
(PID.TID 0000.0001)     ;
(PID.TID 0000.0001) SEAICEscaleSurfStress  = /* scale atm. and ocean-surface stress with AREA */
(PID.TID 0000.0001)                   F
(PID.TID 0000.0001)     ;
(PID.TID 0000.0001) SEAICE_maskRHS    = /* mask RHS of solver */
(PID.TID 0000.0001)                   F
(PID.TID 0000.0001)     ;
(PID.TID 0000.0001) SEAICEaddSnowMass = /* add snow mass to seaiceMassC/U/V */
(PID.TID 0000.0001)                   F
(PID.TID 0000.0001)     ;
(PID.TID 0000.0001) LSR_mixIniGuess = /* mix free-drift sol. into LSR initial Guess */
(PID.TID 0000.0001)                       0
(PID.TID 0000.0001)     ;
(PID.TID 0000.0001) SEAICE_LSRrelaxU  = /* LSR solver: relaxation parameter */
(PID.TID 0000.0001)                 9.500000000000000E-01
(PID.TID 0000.0001)     ;
(PID.TID 0000.0001) SEAICE_LSRrelaxV  = /* LSR solver: relaxation parameter */
(PID.TID 0000.0001)                 9.500000000000000E-01
(PID.TID 0000.0001)     ;
(PID.TID 0000.0001) LSR_ERROR         = /* sets accuracy of LSR solver */
(PID.TID 0000.0001)                 2.000000000000000E-04
(PID.TID 0000.0001)     ;
(PID.TID 0000.0001) SOLV_NCHECK       = /* test interval for LSR solver */
(PID.TID 0000.0001)                       2
(PID.TID 0000.0001)     ;
(PID.TID 0000.0001) SEAICEuseMultiTileSolver = /* use full domain tri-diag solver */
(PID.TID 0000.0001)                   F
(PID.TID 0000.0001)     ;
(PID.TID 0000.0001) SEAICE_OLx = /* overlap for LSR/preconditioner */
(PID.TID 0000.0001)                       0
(PID.TID 0000.0001)     ;
(PID.TID 0000.0001) SEAICE_OLy = /* overlap for LSR/preconditioner */
(PID.TID 0000.0001)                       0
(PID.TID 0000.0001)     ;
(PID.TID 0000.0001) SEAICEnonLinIterMax = /* max. number of nonlinear solver steps */
(PID.TID 0000.0001)                       2
(PID.TID 0000.0001)     ;
(PID.TID 0000.0001) SEAICElinearIterMax = /* max. number of linear solver steps */
(PID.TID 0000.0001)                    1500
(PID.TID 0000.0001)     ;
(PID.TID 0000.0001) SEAICEnonLinTol     = /* non-linear solver tolerance */
(PID.TID 0000.0001)                 0.000000000000000E+00
(PID.TID 0000.0001)     ;
(PID.TID 0000.0001) 
(PID.TID 0000.0001)    Seaice advection diffusion config,   > START <
(PID.TID 0000.0001)    -----------------------------------------------
(PID.TID 0000.0001) SEAICEmomAdvection = /* advect sea ice momentum */
(PID.TID 0000.0001)                   F
(PID.TID 0000.0001)     ;
(PID.TID 0000.0001) SEAICEadvHeff = /* advect effective ice thickness */
(PID.TID 0000.0001)                   T
(PID.TID 0000.0001)     ;
(PID.TID 0000.0001) SEAICEadvArea = /* advect fractional ice area */
(PID.TID 0000.0001)                   T
(PID.TID 0000.0001)     ;
(PID.TID 0000.0001) SEAICEadvSnow = /* advect snow layer together with ice */
(PID.TID 0000.0001)                   T
(PID.TID 0000.0001)     ;
(PID.TID 0000.0001) SEAICEadvScheme   = /* advection scheme for ice */
(PID.TID 0000.0001)                      30
(PID.TID 0000.0001)     ;
(PID.TID 0000.0001) SEAICEadvSchArea   = /* advection scheme for area */
(PID.TID 0000.0001)                      30
(PID.TID 0000.0001)     ;
(PID.TID 0000.0001) SEAICEadvSchHeff   = /* advection scheme for thickness */
(PID.TID 0000.0001)                      30
(PID.TID 0000.0001)     ;
(PID.TID 0000.0001) SEAICEadvSchSnow   = /* advection scheme for snow */
(PID.TID 0000.0001)                      30
(PID.TID 0000.0001)     ;
(PID.TID 0000.0001) SEAICEdiffKhArea   = /* diffusivity (m^2/s) for area */
(PID.TID 0000.0001)                 4.000000000000000E+02
(PID.TID 0000.0001)     ;
(PID.TID 0000.0001) SEAICEdiffKhHeff   = /* diffusivity (m^2/s) for heff */
(PID.TID 0000.0001)                 4.000000000000000E+02
(PID.TID 0000.0001)     ;
(PID.TID 0000.0001) SEAICEdiffKhSnow   = /* diffusivity (m^2/s) for snow */
(PID.TID 0000.0001)                 4.000000000000000E+02
(PID.TID 0000.0001)     ;
(PID.TID 0000.0001) DIFF1             = /* parameter used in advect.F [m/s] */
(PID.TID 0000.0001)                 0.000000000000000E+00
(PID.TID 0000.0001)     ;
(PID.TID 0000.0001) 
(PID.TID 0000.0001)    Seaice thermodynamics configuration   > START <
(PID.TID 0000.0001)    -----------------------------------------------
(PID.TID 0000.0001) SEAICE_rhoIce     = /* density of sea ice (kg/m3) */
(PID.TID 0000.0001)                 9.100000000000000E+02
(PID.TID 0000.0001)     ;
(PID.TID 0000.0001) SEAICE_rhoSnow    = /* density of snow (kg/m3) */
(PID.TID 0000.0001)                 3.300000000000000E+02
(PID.TID 0000.0001)     ;
(PID.TID 0000.0001) SEAICE_rhoAir     = /* density of air (kg/m3) */
(PID.TID 0000.0001)                 1.200000000000000E+00
(PID.TID 0000.0001)     ;
(PID.TID 0000.0001) usePW79thermodynamics  = /* default 0-layer TD */
(PID.TID 0000.0001)                   T
(PID.TID 0000.0001)     ;
(PID.TID 0000.0001) SEAICE_lhEvap     = /* latent heat of evaporation */
(PID.TID 0000.0001)                 2.500000000000000E+06
(PID.TID 0000.0001)     ;
(PID.TID 0000.0001) SEAICE_lhFusion   = /* latent heat of fusion */
(PID.TID 0000.0001)                 3.340000000000000E+05
(PID.TID 0000.0001)     ;
(PID.TID 0000.0001) SEAICE_mcPheePiston = /* turbulent flux "piston velocity" a la McPhee (m/s) */
(PID.TID 0000.0001)                 3.858024691358025E-05
(PID.TID 0000.0001)     ;
(PID.TID 0000.0001) SEAICE_mcPheeTaper = /* tapering of turbulent flux (0.< <1.) for AREA=1. */
(PID.TID 0000.0001)                 0.000000000000000E+00
(PID.TID 0000.0001)     ;
(PID.TID 0000.0001) SEAICE_mcPheeStepFunc = /* replace linear tapering with step funct. */
(PID.TID 0000.0001)                   F
(PID.TID 0000.0001)     ;
(PID.TID 0000.0001) SEAICE_frazilFrac = /* frazil (T<tempFrz) to seaice conversion rate (0.< <1.) */
(PID.TID 0000.0001)                 1.000000000000000E+00
(PID.TID 0000.0001)     ;
(PID.TID 0000.0001) SEAICE_tempFrz0   = /* freezing temp. of sea water (intercept) */
(PID.TID 0000.0001)                -1.960000000000000E+00
(PID.TID 0000.0001)     ;
(PID.TID 0000.0001) SEAICE_dTempFrz_dS= /* freezing temp. of sea water (slope) */
(PID.TID 0000.0001)                 0.000000000000000E+00
(PID.TID 0000.0001)     ;
(PID.TID 0000.0001) SEAICE_growMeltByConv  = /* grow,melt by vert. conv. */
(PID.TID 0000.0001)                   F
(PID.TID 0000.0001)     ;
(PID.TID 0000.0001) SEAICE_doOpenWaterGrowth = /* grow by open water */
(PID.TID 0000.0001)                   T
(PID.TID 0000.0001)     ;
(PID.TID 0000.0001) SEAICE_doOpenWaterMelt = /* melt by open water */
(PID.TID 0000.0001)                   F
(PID.TID 0000.0001)     ;
(PID.TID 0000.0001) SEAICE_areaGainFormula = /* ice cover gain formula (1,2)*/
(PID.TID 0000.0001)                       1
(PID.TID 0000.0001)     1=from growth by ATM
(PID.TID 0000.0001)     2=from predicted growth by ATM
(PID.TID 0000.0001)     ;
(PID.TID 0000.0001) SEAICE_areaLossFormula = /* ice cover loss formula (1,2)*/
(PID.TID 0000.0001)                       2
(PID.TID 0000.0001)     1=from all but only melt conributions by ATM and OCN
(PID.TID 0000.0001)     2=from net melt-grow>0 by ATM and OCN
(PID.TID 0000.0001)     3=from predicted melt by ATM
(PID.TID 0000.0001)     ;
(PID.TID 0000.0001) HO                = /* nominal thickness of new ice */
(PID.TID 0000.0001)                 5.000000000000000E-01
(PID.TID 0000.0001)     ;
(PID.TID 0000.0001) HO_south               = /* Southern Ocean HO */
(PID.TID 0000.0001)                 5.000000000000000E-01
(PID.TID 0000.0001)     ;
(PID.TID 0000.0001) SEAICE_area_max        = /* set to les than 1. to mimic open leads */
(PID.TID 0000.0001)                 9.500000000000000E-01
(PID.TID 0000.0001)     ;
(PID.TID 0000.0001) SEAICE_salt0   = /* constant sea ice salinity */
(PID.TID 0000.0001)                 4.000000000000000E+00
(PID.TID 0000.0001)     ;
(PID.TID 0000.0001) SEAICE_salinityTracer = /* test SITR varia. salinity */
(PID.TID 0000.0001)                   F
(PID.TID 0000.0001)     ;
(PID.TID 0000.0001) SEAICEuseFlooding = /* turn submerged snow into ice */
(PID.TID 0000.0001)                   T
(PID.TID 0000.0001)     ;
(PID.TID 0000.0001) 
(PID.TID 0000.0001)    Seaice air-sea fluxes configuration,   > START <
(PID.TID 0000.0001)    -----------------------------------------------
(PID.TID 0000.0001) SEAICEheatConsFix  = /* accound for ocn<->seaice advect. heat flux */
(PID.TID 0000.0001)                   T
(PID.TID 0000.0001)     ;
(PID.TID 0000.0001) SEAICE_multDim    = /* number of ice categories (1 or 7) */
(PID.TID 0000.0001)                       1
(PID.TID 0000.0001)     ;
(PID.TID 0000.0001) SEAICE_PDF        = /* sea-ice distribution (-) */
(PID.TID 0000.0001)                 1.000000000000000E+00,      /* K =  1 */
(PID.TID 0000.0001)     6 @  0.000000000000000E+00              /* K =  2:  7 */
(PID.TID 0000.0001)     ;
(PID.TID 0000.0001) IMAX_TICE         = /* iterations for ice surface temp */
(PID.TID 0000.0001)                      10
(PID.TID 0000.0001)     ;
(PID.TID 0000.0001) postSolvTempIter= /* flux calculation after surf. temp iter */
(PID.TID 0000.0001)                       2
(PID.TID 0000.0001)     ;
(PID.TID 0000.0001) SEAICE_dryIceAlb  = /* winter albedo */
(PID.TID 0000.0001)                 8.400000000000000E-01
(PID.TID 0000.0001)     ;
(PID.TID 0000.0001) SEAICE_wetIceAlb  = /* summer albedo */
(PID.TID 0000.0001)                 7.800000000000000E-01
(PID.TID 0000.0001)     ;
(PID.TID 0000.0001) SEAICE_drySnowAlb = /* dry snow albedo */
(PID.TID 0000.0001)                 9.000000000000000E-01
(PID.TID 0000.0001)     ;
(PID.TID 0000.0001) SEAICE_wetSnowAlb = /* wet snow albedo */
(PID.TID 0000.0001)                 8.000000000000000E-01
(PID.TID 0000.0001)     ;
(PID.TID 0000.0001) SEAICE_dryIceAlb_south = /* Southern Ocean dryIceAlb */
(PID.TID 0000.0001)                 7.500000000000000E-01
(PID.TID 0000.0001)     ;
(PID.TID 0000.0001) SEAICE_wetIceAlb_south = /* Southern Ocean wetIceAlb */
(PID.TID 0000.0001)                 6.600000000000000E-01
(PID.TID 0000.0001)     ;
(PID.TID 0000.0001) SEAICE_drySnowAlb_south= /* Southern Ocean drySnowAlb */
(PID.TID 0000.0001)                 8.400000000000000E-01
(PID.TID 0000.0001)     ;
(PID.TID 0000.0001) SEAICE_wetSnowAlb_south= /* Southern Ocean wetSnowAlb */
(PID.TID 0000.0001)                 7.000000000000000E-01
(PID.TID 0000.0001)     ;
(PID.TID 0000.0001) SEAICE_wetAlbTemp= /* Temp (o.C) threshold for wet-albedo */
(PID.TID 0000.0001)                -1.000000000000000E-03
(PID.TID 0000.0001)     ;
(PID.TID 0000.0001) SEAICE_snow_emiss = /* snow emissivity */
(PID.TID 0000.0001)                 9.500000000000000E-01
(PID.TID 0000.0001)     ;
(PID.TID 0000.0001) SEAICE_ice_emiss = /* seaice emissivity */
(PID.TID 0000.0001)                 9.500000000000000E-01
(PID.TID 0000.0001)     ;
(PID.TID 0000.0001) SEAICE_cpAir      = /* heat capacity of air */
(PID.TID 0000.0001)                 1.005000000000000E+03
(PID.TID 0000.0001)     ;
(PID.TID 0000.0001) SEAICE_dalton     = /* constant dalton number */
(PID.TID 0000.0001)                 1.750000000000000E-03
(PID.TID 0000.0001)     ;
(PID.TID 0000.0001) SEAICE_iceConduct = /* sea-ice conductivity */
(PID.TID 0000.0001)                 2.165600000000000E+00
(PID.TID 0000.0001)     ;
(PID.TID 0000.0001) SEAICE_snowConduct= /* snow conductivity */
(PID.TID 0000.0001)                 3.100000000000000E-01
(PID.TID 0000.0001)     ;
(PID.TID 0000.0001) SEAICE_snowThick  = /* cutoff snow thickness (for albedo) */
(PID.TID 0000.0001)                 1.500000000000000E-01
(PID.TID 0000.0001)     ;
(PID.TID 0000.0001) SEAICE_shortwave  = /* penetration shortwave radiation */
(PID.TID 0000.0001)                 3.000000000000000E-01
(PID.TID 0000.0001)     ;
(PID.TID 0000.0001) useMaykutSatVapPoly = /* use Maykut Polynomial for Sat.Vap.Pr */
(PID.TID 0000.0001)                   F
(PID.TID 0000.0001)     ;
(PID.TID 0000.0001) MIN_ATEMP         = /* minimum air temperature */
(PID.TID 0000.0001)                -4.000000000000000E+01
(PID.TID 0000.0001)     ;
(PID.TID 0000.0001) MIN_LWDOWN        = /* minimum downward longwave */
(PID.TID 0000.0001)                 6.000000000000000E+01
(PID.TID 0000.0001)     ;
(PID.TID 0000.0001) MIN_TICE          = /* minimum ice temperature */
(PID.TID 0000.0001)                -4.000000000000000E+01
(PID.TID 0000.0001)     ;
(PID.TID 0000.0001) 
(PID.TID 0000.0001)    Seaice initialization and IO config.,   > START <
(PID.TID 0000.0001)    -------------------------------------------------
(PID.TID 0000.0001) SEAICE_initialHEFF= /* initial sea-ice thickness */
(PID.TID 0000.0001)                 0.000000000000000E+00
(PID.TID 0000.0001)     ;
(PID.TID 0000.0001) AreaFile = /* Initial ice concentration File */
(PID.TID 0000.0001)               ''
(PID.TID 0000.0001)     ;
(PID.TID 0000.0001) HeffFile = /* Initial effective ice thickness File */
(PID.TID 0000.0001)               ''
(PID.TID 0000.0001)     ;
(PID.TID 0000.0001) HsnowFile = /* Initial snow thickness File */
(PID.TID 0000.0001)               ''
(PID.TID 0000.0001)     ;
(PID.TID 0000.0001) uIceFile = /* Initial U-ice velocity File */
(PID.TID 0000.0001)               ''
(PID.TID 0000.0001)     ;
(PID.TID 0000.0001) vIceFile = /* Initial V-ice velocity File */
(PID.TID 0000.0001)               ''
(PID.TID 0000.0001)     ;
(PID.TID 0000.0001) SEAICEwriteState  = /* write sea ice state to file */
(PID.TID 0000.0001)                   F
(PID.TID 0000.0001)     ;
(PID.TID 0000.0001) SEAICE_monFreq  = /* monitor frequency */
(PID.TID 0000.0001)                 7.200000000000000E+03
(PID.TID 0000.0001)     ;
(PID.TID 0000.0001) SEAICE_dumpFreq   = /* dump frequency */
(PID.TID 0000.0001)                 0.000000000000000E+00
(PID.TID 0000.0001)     ;
(PID.TID 0000.0001) SEAICE_taveFreq   = /* time-averaging frequency */
(PID.TID 0000.0001)                 0.000000000000000E+00
(PID.TID 0000.0001)     ;
(PID.TID 0000.0001) SEAICE_mon_stdio  = /* write monitor to std-outp */
(PID.TID 0000.0001)                   T
(PID.TID 0000.0001)     ;
(PID.TID 0000.0001) SEAICE_dump_mdsio = /* write snap-shot   using MDSIO */
(PID.TID 0000.0001)                   T
(PID.TID 0000.0001)     ;
(PID.TID 0000.0001) SEAICE_tave_mdsio = /* write TimeAverage using MDSIO */
(PID.TID 0000.0001)                   T
(PID.TID 0000.0001)     ;
(PID.TID 0000.0001) 
(PID.TID 0000.0001)    Seaice regularization numbers,   > START <
(PID.TID 0000.0001)    -----------------------------------------------
(PID.TID 0000.0001) SEAICE_deltaMin   = /* reduce singularities in Delta */
(PID.TID 0000.0001)                 1.000000000000000E-10
(PID.TID 0000.0001)     ;
(PID.TID 0000.0001) SEAICE_EPS        = /* small number */
(PID.TID 0000.0001)                 1.000000000000000E-10
(PID.TID 0000.0001)     ;
(PID.TID 0000.0001) SEAICE_EPS_SQ     = /* small number squared */
(PID.TID 0000.0001)                 1.000000000000000E-20
(PID.TID 0000.0001)     ;
(PID.TID 0000.0001) SEAICE_area_reg   = /* reduce derivative singularities */
(PID.TID 0000.0001)                 1.000000000000000E-05
(PID.TID 0000.0001)     ;
(PID.TID 0000.0001) SEAICE_hice_reg   = /* reduce derivative singularities */
(PID.TID 0000.0001)                 5.000000000000000E-02
(PID.TID 0000.0001)     ;
(PID.TID 0000.0001) SEAICE_area_floor = /* reduce derivative singularities */
(PID.TID 0000.0001)                 1.000000000000000E-05
(PID.TID 0000.0001)     ;
(PID.TID 0000.0001) 
(PID.TID 0000.0001) // =======================================================
(PID.TID 0000.0001) // Seaice configuration (SEAICE_PARM01) >>> END <<<
(PID.TID 0000.0001) // =======================================================
(PID.TID 0000.0001) 
(PID.TID 0000.0001) ------------------------------------------------------------
(PID.TID 0000.0001) DIAGNOSTICS_SET_LEVELS: done
(PID.TID 0000.0001)  Total Nb of available Diagnostics: ndiagt=   297
(PID.TID 0000.0001)  write list of available Diagnostics to file: available_diagnostics.log
(PID.TID 0000.0001) SETDIAG: Allocate  1 x  1 Levels for Diagnostic #    23 ETAN
(PID.TID 0000.0001) SETDIAG: Allocate  1 x  1 Levels for Diagnostic #   224 SIarea
(PID.TID 0000.0001) SETDIAG: Allocate  1 x  1 Levels for Diagnostic #   227 SIheff
(PID.TID 0000.0001) SETDIAG: Allocate  1 x  1 Levels for Diagnostic #   229 SIhsnow
(PID.TID 0000.0001) SETDIAG: Allocate  1 x  1 Levels for Diagnostic #    25 DETADT2
(PID.TID 0000.0001) SETDIAG: Allocate  1 x  1 Levels for Diagnostic #    73 PHIBOT
(PID.TID 0000.0001) SETDIAG: Allocate  1 x  1 Levels for Diagnostic #    83 sIceLoad
(PID.TID 0000.0001) SETDIAG: Allocate  1 x  1 Levels for Diagnostic #    77 MXLDEPTH
(PID.TID 0000.0001) SETDIAG: Allocate  1 x  1 Levels for Diagnostic #   297 oceSPDep
(PID.TID 0000.0001) SETDIAG: Allocate  1 x  1 Levels for Diagnostic #   241 SIatmQnt
(PID.TID 0000.0001) SETDIAG: Allocate  1 x  1 Levels for Diagnostic #   248 SIatmFW
(PID.TID 0000.0001) SETDIAG: Allocate  1 x  1 Levels for Diagnostic #    86 oceQnet
(PID.TID 0000.0001) SETDIAG: Allocate  1 x  1 Levels for Diagnostic #    84 oceFWflx
(PID.TID 0000.0001) SETDIAG: Allocate  1 x  1 Levels for Diagnostic #    80 oceTAUX
(PID.TID 0000.0001) SETDIAG: Allocate  1 x  1 Levels for Diagnostic #    81 oceTAUY
(PID.TID 0000.0001) SETDIAG: Allocate  1 x  1 Levels for Diagnostic #   268 ADVxHEFF
(PID.TID 0000.0001) SETDIAG: Allocate  1 x  1 Levels for Diagnostic #   269 ADVyHEFF
(PID.TID 0000.0001) SETDIAG: Allocate  1 x  1 Levels for Diagnostic #   270 DFxEHEFF
(PID.TID 0000.0001) SETDIAG: Allocate  1 x  1 Levels for Diagnostic #   271 DFyEHEFF
(PID.TID 0000.0001) SETDIAG: Allocate  1 x  1 Levels for Diagnostic #   276 ADVxSNOW
(PID.TID 0000.0001) SETDIAG: Allocate  1 x  1 Levels for Diagnostic #   277 ADVySNOW
(PID.TID 0000.0001) SETDIAG: Allocate  1 x  1 Levels for Diagnostic #   278 DFxESNOW
(PID.TID 0000.0001) SETDIAG: Allocate  1 x  1 Levels for Diagnostic #   279 DFyESNOW
(PID.TID 0000.0001) SETDIAG: Allocate  1 x  1 Levels for Diagnostic #   233 SIuice
(PID.TID 0000.0001) SETDIAG: Allocate  1 x  1 Levels for Diagnostic #   234 SIvice
(PID.TID 0000.0001) SETDIAG: Allocate 50 x  1 Levels for Diagnostic #    26 THETA
(PID.TID 0000.0001) SETDIAG: Allocate 50 x  1 Levels for Diagnostic #    27 SALT
(PID.TID 0000.0001) SETDIAG: Allocate 50 x  1 Levels for Diagnostic #    78 DRHODR
(PID.TID 0000.0001) SETDIAG: Allocate 50 x  1 Levels for Diagnostic #    45 UVELMASS
(PID.TID 0000.0001) SETDIAG: Allocate 50 x  1 Levels for Diagnostic #    46 VVELMASS
(PID.TID 0000.0001) SETDIAG: Allocate 50 x  1 Levels for Diagnostic #    47 WVELMASS
(PID.TID 0000.0001) SETDIAG: Allocate 50 x  1 Levels for Diagnostic #   217 GM_PsiX
(PID.TID 0000.0001) SETDIAG: Allocate 50 x  1 Levels for Diagnostic #   218 GM_PsiY
(PID.TID 0000.0001) SETDIAG: Allocate 50 x  1 Levels for Diagnostic #   114 DFxE_TH
(PID.TID 0000.0001) SETDIAG: Allocate 50 x  1 Levels for Diagnostic #   115 DFyE_TH
(PID.TID 0000.0001) SETDIAG: Allocate 50 x  1 Levels for Diagnostic #   111 ADVx_TH
(PID.TID 0000.0001) SETDIAG: Allocate 50 x  1 Levels for Diagnostic #   112 ADVy_TH
(PID.TID 0000.0001) SETDIAG: Allocate 50 x  1 Levels for Diagnostic #   121 DFxE_SLT
(PID.TID 0000.0001) SETDIAG: Allocate 50 x  1 Levels for Diagnostic #   122 DFyE_SLT
(PID.TID 0000.0001) SETDIAG: Allocate 50 x  1 Levels for Diagnostic #   118 ADVx_SLT
(PID.TID 0000.0001) SETDIAG: Allocate 50 x  1 Levels for Diagnostic #   119 ADVy_SLT
(PID.TID 0000.0001)   space allocated for all diagnostics:     825 levels
(PID.TID 0000.0001)   set mate pointer for diag #    80  oceTAUX  , Parms: UU      U1 , mate:    81
(PID.TID 0000.0001)   set mate pointer for diag #    81  oceTAUY  , Parms: VV      U1 , mate:    80
(PID.TID 0000.0001)   set mate pointer for diag #   268  ADVxHEFF , Parms: UU      M1 , mate:   269
(PID.TID 0000.0001)   set mate pointer for diag #   269  ADVyHEFF , Parms: VV      M1 , mate:   268
(PID.TID 0000.0001)   set mate pointer for diag #   270  DFxEHEFF , Parms: UU      M1 , mate:   271
(PID.TID 0000.0001)   set mate pointer for diag #   271  DFyEHEFF , Parms: VV      M1 , mate:   270
(PID.TID 0000.0001)   set mate pointer for diag #   276  ADVxSNOW , Parms: UU      M1 , mate:   277
(PID.TID 0000.0001)   set mate pointer for diag #   277  ADVySNOW , Parms: VV      M1 , mate:   276
(PID.TID 0000.0001)   set mate pointer for diag #   278  DFxESNOW , Parms: UU      M1 , mate:   279
(PID.TID 0000.0001)   set mate pointer for diag #   279  DFyESNOW , Parms: VV      M1 , mate:   278
(PID.TID 0000.0001)   set mate pointer for diag #   233  SIuice   , Parms: UU      M1 , mate:   234
(PID.TID 0000.0001)   set mate pointer for diag #   234  SIvice   , Parms: VV      M1 , mate:   233
(PID.TID 0000.0001)   set mate pointer for diag #    45  UVELMASS , Parms: UUr     MR , mate:    46
(PID.TID 0000.0001)   set mate pointer for diag #    46  VVELMASS , Parms: VVr     MR , mate:    45
(PID.TID 0000.0001)   set mate pointer for diag #   217  GM_PsiX  , Parms: UU      LR , mate:   218
(PID.TID 0000.0001)   set mate pointer for diag #   218  GM_PsiY  , Parms: VV      LR , mate:   217
(PID.TID 0000.0001)   set mate pointer for diag #   114  DFxE_TH  , Parms: UU      MR , mate:   115
(PID.TID 0000.0001)   set mate pointer for diag #   115  DFyE_TH  , Parms: VV      MR , mate:   114
(PID.TID 0000.0001)   set mate pointer for diag #   111  ADVx_TH  , Parms: UU      MR , mate:   112
(PID.TID 0000.0001)   set mate pointer for diag #   112  ADVy_TH  , Parms: VV      MR , mate:   111
(PID.TID 0000.0001)   set mate pointer for diag #   121  DFxE_SLT , Parms: UU      MR , mate:   122
(PID.TID 0000.0001)   set mate pointer for diag #   122  DFyE_SLT , Parms: VV      MR , mate:   121
(PID.TID 0000.0001)   set mate pointer for diag #   118  ADVx_SLT , Parms: UU      MR , mate:   119
(PID.TID 0000.0001)   set mate pointer for diag #   119  ADVy_SLT , Parms: VV      MR , mate:   118
(PID.TID 0000.0001) DIAGNOSTICS_SET_POINTERS: Set levels for Outp.Stream: state_2d_set1
(PID.TID 0000.0001)  Levels:       1.
(PID.TID 0000.0001) DIAGNOSTICS_SET_POINTERS: Set levels for Outp.Stream: state_3d_set1
(PID.TID 0000.0001)  Levels:       1.   2.   3.   4.   5.   6.   7.   8.   9.  10.  11.  12.  13.  14.  15.  16.  17.  18.  19.  20.
(PID.TID 0000.0001)  Levels:      21.  22.  23.  24.  25.  26.  27.  28.  29.  30.  31.  32.  33.  34.  35.  36.  37.  38.  39.  40.
(PID.TID 0000.0001)  Levels:      41.  42.  43.  44.  45.  46.  47.  48.  49.  50.
(PID.TID 0000.0001) DIAGNOSTICS_SET_POINTERS: Set levels for Outp.Stream: trsp_3d_set1
(PID.TID 0000.0001)  Levels:       1.   2.   3.   4.   5.   6.   7.   8.   9.  10.  11.  12.  13.  14.  15.  16.  17.  18.  19.  20.
(PID.TID 0000.0001)  Levels:      21.  22.  23.  24.  25.  26.  27.  28.  29.  30.  31.  32.  33.  34.  35.  36.  37.  38.  39.  40.
(PID.TID 0000.0001)  Levels:      41.  42.  43.  44.  45.  46.  47.  48.  49.  50.
(PID.TID 0000.0001) DIAGNOSTICS_SET_POINTERS: Set levels for Outp.Stream: trsp_3d_set2
(PID.TID 0000.0001)  Levels:       1.   2.   3.   4.   5.   6.   7.   8.   9.  10.  11.  12.  13.  14.  15.  16.  17.  18.  19.  20.
(PID.TID 0000.0001)  Levels:      21.  22.  23.  24.  25.  26.  27.  28.  29.  30.  31.  32.  33.  34.  35.  36.  37.  38.  39.  40.
(PID.TID 0000.0001)  Levels:      41.  42.  43.  44.  45.  46.  47.  48.  49.  50.
(PID.TID 0000.0001) DIAGNOSTICS_SET_POINTERS: done
(PID.TID 0000.0001) ------------------------------------------------------------
(PID.TID 0000.0001) DIAGSTATS_SET_REGIONS: define   0 regions:
(PID.TID 0000.0001) ------------------------------------------------------------
(PID.TID 0000.0001)   space allocated for all stats-diags:       0 levels
(PID.TID 0000.0001) DIAGSTATS_SET_POINTERS: done
(PID.TID 0000.0001) ------------------------------------------------------------
(PID.TID 0000.0001) INI_GLOBAL_DOMAIN: Found   0 CS-corner Pts in the domain
(PID.TID 0000.0001) %MON fCori_max                    =   1.4584096177006E-04
(PID.TID 0000.0001) %MON fCori_min                    =  -1.4429171327635E-04
(PID.TID 0000.0001) %MON fCori_mean                   =  -1.9531894197173E-06
(PID.TID 0000.0001) %MON fCori_sd                     =   1.0434730642309E-04
(PID.TID 0000.0001) %MON fCoriG_max                   =   1.4584247033981E-04
(PID.TID 0000.0001) %MON fCoriG_min                   =  -1.4435339896041E-04
(PID.TID 0000.0001) %MON fCoriG_mean                  =  -1.9303770726087E-06
(PID.TID 0000.0001) %MON fCoriG_sd                    =   1.0435958182593E-04
(PID.TID 0000.0001) %MON fCoriCos_max                 =   1.4584158744890E-04
(PID.TID 0000.0001) %MON fCoriCos_min                 =   6.6334365221135E-07
(PID.TID 0000.0001) %MON fCoriCos_mean                =   9.3876998486639E-05
(PID.TID 0000.0001) %MON fCoriCos_sd                  =   3.9559575367967E-05
(PID.TID 0000.0001) INI_CG2D: CG2D normalisation factor =  7.1522409280111305E-05
(PID.TID 0000.0001) INI_CG2D: cg2dTolerance = 7.112781640300954E-06 (Area=3.5801386115E+14)
(PID.TID 0000.0001) 
(PID.TID 0000.0001) // =======================================================
(PID.TID 0000.0001) // Model configuration
(PID.TID 0000.0001) // =======================================================
(PID.TID 0000.0001) //
(PID.TID 0000.0001) // "Physical" paramters ( PARM01 in namelist )
(PID.TID 0000.0001) //
(PID.TID 0000.0001) buoyancyRelation = /* Type of relation to get Buoyancy */
(PID.TID 0000.0001)               'OCEANIC'
(PID.TID 0000.0001)     ;
(PID.TID 0000.0001) fluidIsAir   =  /* fluid major constituent is Air */
(PID.TID 0000.0001)                   F
(PID.TID 0000.0001)     ;
(PID.TID 0000.0001) fluidIsWater =  /* fluid major constituent is Water */
(PID.TID 0000.0001)                   T
(PID.TID 0000.0001)     ;
(PID.TID 0000.0001) usingPCoords =  /* use p (or p*) vertical coordinate */
(PID.TID 0000.0001)                   F
(PID.TID 0000.0001)     ;
(PID.TID 0000.0001) usingZCoords =  /* use z (or z*) vertical coordinate */
(PID.TID 0000.0001)                   T
(PID.TID 0000.0001)     ;
(PID.TID 0000.0001) tRef =   /* Reference temperature profile ( oC or K ) */
(PID.TID 0000.0001)     3 @  2.300000000000000E+01,             /* K =  1:  3 */
(PID.TID 0000.0001)     3 @  2.200000000000000E+01,             /* K =  4:  6 */
(PID.TID 0000.0001)                 2.100000000000000E+01,      /* K =  7 */
(PID.TID 0000.0001)     2 @  2.000000000000000E+01,             /* K =  8:  9 */
(PID.TID 0000.0001)                 1.900000000000000E+01,      /* K = 10 */
(PID.TID 0000.0001)     2 @  1.800000000000000E+01,             /* K = 11: 12 */
(PID.TID 0000.0001)                 1.700000000000000E+01,      /* K = 13 */
(PID.TID 0000.0001)     2 @  1.600000000000000E+01,             /* K = 14: 15 */
(PID.TID 0000.0001)                 1.500000000000000E+01,      /* K = 16 */
(PID.TID 0000.0001)                 1.400000000000000E+01,      /* K = 17 */
(PID.TID 0000.0001)                 1.300000000000000E+01,      /* K = 18 */
(PID.TID 0000.0001)                 1.200000000000000E+01,      /* K = 19 */
(PID.TID 0000.0001)                 1.100000000000000E+01,      /* K = 20 */
(PID.TID 0000.0001)     2 @  9.000000000000000E+00,             /* K = 21: 22 */
(PID.TID 0000.0001)                 8.000000000000000E+00,      /* K = 23 */
(PID.TID 0000.0001)                 7.000000000000000E+00,      /* K = 24 */
(PID.TID 0000.0001)     2 @  6.000000000000000E+00,             /* K = 25: 26 */
(PID.TID 0000.0001)     2 @  5.000000000000000E+00,             /* K = 27: 28 */
(PID.TID 0000.0001)     3 @  4.000000000000000E+00,             /* K = 29: 31 */
(PID.TID 0000.0001)     3 @  3.000000000000000E+00,             /* K = 32: 34 */
(PID.TID 0000.0001)     4 @  2.000000000000000E+00,             /* K = 35: 38 */
(PID.TID 0000.0001)    12 @  1.000000000000000E+00              /* K = 39: 50 */
(PID.TID 0000.0001)     ;
(PID.TID 0000.0001) sRef =   /* Reference salinity profile ( psu ) */
(PID.TID 0000.0001)    50 @  3.450000000000000E+01              /* K =  1: 50 */
(PID.TID 0000.0001)     ;
(PID.TID 0000.0001) useStrainTensionVisc= /* Use StrainTension Form of Viscous Operator */
(PID.TID 0000.0001)                   F
(PID.TID 0000.0001)     ;
(PID.TID 0000.0001) useVariableVisc = /* Use variable horizontal viscosity */
(PID.TID 0000.0001)                   T
(PID.TID 0000.0001)     ;
(PID.TID 0000.0001) useHarmonicVisc = /* Use harmonic horizontal viscosity */
(PID.TID 0000.0001)                   T
(PID.TID 0000.0001)     ;
(PID.TID 0000.0001) useBiharmonicVisc= /* Use biharmonic horiz.  viscosity */
(PID.TID 0000.0001)                   T
(PID.TID 0000.0001)     ;
(PID.TID 0000.0001) useSmag3D = /* Use isotropic 3-D Smagorinsky viscosity */
(PID.TID 0000.0001)                   F
(PID.TID 0000.0001)     ;
(PID.TID 0000.0001) viscAh  =   /* Lateral harmonic viscosity ( m^2/s ) */
(PID.TID 0000.0001)                 1.000000000000000E+00
(PID.TID 0000.0001)     ;
(PID.TID 0000.0001) viscAhMax = /* Maximum lateral harmonic viscosity ( m^2/s ) */
(PID.TID 0000.0001)                 1.000000000000000E+21
(PID.TID 0000.0001)     ;
(PID.TID 0000.0001) viscAhGrid = /* Grid dependent lateral harmonic viscosity ( non-dim. ) */
(PID.TID 0000.0001)                 2.000000000000000E-02
(PID.TID 0000.0001)     ;
(PID.TID 0000.0001) useFullLeith = /* Use Full Form of Leith Viscosity on/off flag*/
(PID.TID 0000.0001)                   F
(PID.TID 0000.0001)     ;
(PID.TID 0000.0001) useAreaViscLength = /* Use area for visc length instead of geom. mean*/
(PID.TID 0000.0001)                   F
(PID.TID 0000.0001)     ;
(PID.TID 0000.0001) viscC2leith = /* Leith harmonic visc. factor (on grad(vort),non-dim.) */
(PID.TID 0000.0001)                 0.000000000000000E+00
(PID.TID 0000.0001)     ;
(PID.TID 0000.0001) viscC2leithD = /* Leith harmonic viscosity factor (on grad(div),non-dim.)*/
(PID.TID 0000.0001)                 0.000000000000000E+00
(PID.TID 0000.0001)     ;
(PID.TID 0000.0001) viscC2smag = /* Smagorinsky harmonic viscosity factor (non-dim.) */
(PID.TID 0000.0001)                 0.000000000000000E+00
(PID.TID 0000.0001)     ;
(PID.TID 0000.0001) viscA4  =   /* Lateral biharmonic viscosity ( m^4/s ) */
(PID.TID 0000.0001)                 0.000000000000000E+00
(PID.TID 0000.0001)     ;
(PID.TID 0000.0001) viscA4Max = /* Maximum biharmonic viscosity ( m^2/s ) */
(PID.TID 0000.0001)                 1.000000000000000E+21
(PID.TID 0000.0001)     ;
(PID.TID 0000.0001) viscA4Grid = /* Grid dependent biharmonic viscosity ( non-dim. ) */
(PID.TID 0000.0001)                 0.000000000000000E+00
(PID.TID 0000.0001)     ;
(PID.TID 0000.0001) viscC4leith = /* Leith biharm viscosity factor (on grad(vort), non-dim.)*/
(PID.TID 0000.0001)                 0.000000000000000E+00
(PID.TID 0000.0001)     ;
(PID.TID 0000.0001) viscC4leithD = /* Leith biharm viscosity factor (on grad(div), non-dim.) */
(PID.TID 0000.0001)                 0.000000000000000E+00
(PID.TID 0000.0001)     ;
(PID.TID 0000.0001) viscC4Smag = /* Smagorinsky biharm viscosity factor (non-dim) */
(PID.TID 0000.0001)                 0.000000000000000E+00
(PID.TID 0000.0001)     ;
(PID.TID 0000.0001) no_slip_sides =  /* Viscous BCs: No-slip sides */
(PID.TID 0000.0001)                   T
(PID.TID 0000.0001)     ;
(PID.TID 0000.0001) sideDragFactor = /* side-drag scaling factor (non-dim) */
(PID.TID 0000.0001)                 2.000000000000000E+00
(PID.TID 0000.0001)     ;
(PID.TID 0000.0001) viscArNr = /* vertical profile of vertical viscosity ( m^2/s )*/
(PID.TID 0000.0001)    50 @  5.000000000000000E-05              /* K =  1: 50 */
(PID.TID 0000.0001)     ;
(PID.TID 0000.0001) no_slip_bottom =  /* Viscous BCs: No-slip bottom */
(PID.TID 0000.0001)                   T
(PID.TID 0000.0001)     ;
(PID.TID 0000.0001) bottomVisc_pCell = /* Partial-cell in bottom Visc. BC */
(PID.TID 0000.0001)                   F
(PID.TID 0000.0001)     ;
(PID.TID 0000.0001) bottomDragLinear = /* linear bottom-drag coefficient ( m/s ) */
(PID.TID 0000.0001)                 0.000000000000000E+00
(PID.TID 0000.0001)     ;
(PID.TID 0000.0001) bottomDragQuadratic = /* quadratic bottom-drag coefficient (-) */
(PID.TID 0000.0001)                 1.000000000000000E-03
(PID.TID 0000.0001)     ;
(PID.TID 0000.0001) selectBotDragQuadr = /* select quadratic bottom drag options */
(PID.TID 0000.0001)                       0
(PID.TID 0000.0001)     ;
(PID.TID 0000.0001) diffKhT =   /* Laplacian diffusion of heat laterally ( m^2/s ) */
(PID.TID 0000.0001)                 1.000000000000000E+01
(PID.TID 0000.0001)     ;
(PID.TID 0000.0001) diffK4T =   /* Biharmonic diffusion of heat laterally ( m^4/s ) */
(PID.TID 0000.0001)                 0.000000000000000E+00
(PID.TID 0000.0001)     ;
(PID.TID 0000.0001) diffKhS =   /* Laplacian diffusion of salt laterally ( m^2/s ) */
(PID.TID 0000.0001)                 1.000000000000000E+01
(PID.TID 0000.0001)     ;
(PID.TID 0000.0001) diffK4S =   /* Biharmonic diffusion of salt laterally ( m^4/s ) */
(PID.TID 0000.0001)                 0.000000000000000E+00
(PID.TID 0000.0001)     ;
(PID.TID 0000.0001) diffKrNrT = /* vertical profile of vertical diffusion of Temp ( m^2/s )*/
(PID.TID 0000.0001)    50 @  1.000000000000000E-05              /* K =  1: 50 */
(PID.TID 0000.0001)     ;
(PID.TID 0000.0001) diffKrNrS = /* vertical profile of vertical diffusion of Salt ( m^2/s )*/
(PID.TID 0000.0001)    50 @  1.000000000000000E-05              /* K =  1: 50 */
(PID.TID 0000.0001)     ;
(PID.TID 0000.0001) diffKrBL79surf = /* Surface diffusion for Bryan and Lewis 79 ( m^2/s ) */
(PID.TID 0000.0001)                 0.000000000000000E+00
(PID.TID 0000.0001)     ;
(PID.TID 0000.0001) diffKrBL79deep = /* Deep diffusion for Bryan and Lewis 1979 ( m^2/s ) */
(PID.TID 0000.0001)                 0.000000000000000E+00
(PID.TID 0000.0001)     ;
(PID.TID 0000.0001) diffKrBL79scl = /* Depth scale for Bryan and Lewis 1979 ( m ) */
(PID.TID 0000.0001)                 2.000000000000000E+02
(PID.TID 0000.0001)     ;
(PID.TID 0000.0001) diffKrBL79Ho = /* Turning depth for Bryan and Lewis 1979 ( m ) */
(PID.TID 0000.0001)                -2.000000000000000E+03
(PID.TID 0000.0001)     ;
(PID.TID 0000.0001) ivdc_kappa = /* Implicit Vertical Diffusivity for Convection ( m^2/s) */
(PID.TID 0000.0001)                 1.000000000000000E+01
(PID.TID 0000.0001)     ;
(PID.TID 0000.0001) hMixCriteria=  /* Criteria for mixed-layer diagnostic */
(PID.TID 0000.0001)                -8.000000000000000E-01
(PID.TID 0000.0001)     ;
(PID.TID 0000.0001) dRhoSmall =  /* Parameter for mixed-layer diagnostic */
(PID.TID 0000.0001)                 1.000000000000000E-06
(PID.TID 0000.0001)     ;
(PID.TID 0000.0001) hMixSmooth=  /* Smoothing parameter for mixed-layer diagnostic */
(PID.TID 0000.0001)                 0.000000000000000E+00
(PID.TID 0000.0001)     ;
(PID.TID 0000.0001) eosType =  /* Type of Equation of State */
(PID.TID 0000.0001)               'JMD95Z'
(PID.TID 0000.0001)     ;
(PID.TID 0000.0001) selectP_inEOS_Zc = /* select pressure to use in EOS (0,1,2,3) */
(PID.TID 0000.0001)                       0
(PID.TID 0000.0001)     0= -g*rhoConst*z ; 1= pRef (from tRef,sRef); 2= Hyd P ; 3= Hyd+NH P
(PID.TID 0000.0001)     ;
(PID.TID 0000.0001) HeatCapacity_Cp =  /* Specific heat capacity ( J/kg/K ) */
(PID.TID 0000.0001)                 3.994000000000000E+03
(PID.TID 0000.0001)     ;
(PID.TID 0000.0001) celsius2K = /* 0 degree Celsius converted to Kelvin ( K ) */
(PID.TID 0000.0001)                 2.731500000000000E+02
(PID.TID 0000.0001)     ;
(PID.TID 0000.0001) rhoConst  = /* Reference density (Boussinesq)  ( kg/m^3 ) */
(PID.TID 0000.0001)                 1.029000000000000E+03
(PID.TID 0000.0001)     ;
(PID.TID 0000.0001) rhoFacC = /* normalized Reference density @ cell-Center (-) */
(PID.TID 0000.0001)    50 @  1.000000000000000E+00              /* K =  1: 50 */
(PID.TID 0000.0001)     ;
(PID.TID 0000.0001) rhoFacF = /* normalized Reference density @ W-Interface (-) */
(PID.TID 0000.0001)    51 @  1.000000000000000E+00              /* K =  1: 51 */
(PID.TID 0000.0001)     ;
(PID.TID 0000.0001) rhoConstFresh = /* Fresh-water reference density ( kg/m^3 ) */
(PID.TID 0000.0001)                 1.000000000000000E+03
(PID.TID 0000.0001)     ;
(PID.TID 0000.0001) gravity =   /* Gravitational acceleration ( m/s^2 ) */
(PID.TID 0000.0001)                 9.810000000000000E+00
(PID.TID 0000.0001)     ;
(PID.TID 0000.0001) gBaro =   /* Barotropic gravity ( m/s^2 ) */
(PID.TID 0000.0001)                 9.810000000000000E+00
(PID.TID 0000.0001)     ;
(PID.TID 0000.0001) gravFacC = /* gravity factor (vs surf.) @ cell-Center (-) */
(PID.TID 0000.0001)    50 @  1.000000000000000E+00              /* K =  1: 50 */
(PID.TID 0000.0001)     ;
(PID.TID 0000.0001) gravFacF = /* gravity factor (vs surf.) @ W-Interface (-) */
(PID.TID 0000.0001)    51 @  1.000000000000000E+00              /* K =  1: 51 */
(PID.TID 0000.0001)     ;
(PID.TID 0000.0001) rotationPeriod =   /* Rotation Period ( s ) */
(PID.TID 0000.0001)                 8.616400000000000E+04
(PID.TID 0000.0001)     ;
(PID.TID 0000.0001) omega =   /* Angular velocity ( rad/s ) */
(PID.TID 0000.0001)                 7.292123516990375E-05
(PID.TID 0000.0001)     ;
(PID.TID 0000.0001) f0 =   /* Reference coriolis parameter ( 1/s ) */
(PID.TID 0000.0001)                 1.000000000000000E-04
(PID.TID 0000.0001)     ;
(PID.TID 0000.0001) beta =   /* Beta ( 1/(m.s) ) */
(PID.TID 0000.0001)                 9.999999999999999E-12
(PID.TID 0000.0001)     ;
(PID.TID 0000.0001) fPrime =   /* Second coriolis parameter ( 1/s ) */
(PID.TID 0000.0001)                 0.000000000000000E+00
(PID.TID 0000.0001)     ;
(PID.TID 0000.0001) rigidLid =   /* Rigid lid on/off flag */
(PID.TID 0000.0001)                   F
(PID.TID 0000.0001)     ;
(PID.TID 0000.0001) implicitFreeSurface =   /* Implicit free surface on/off flag */
(PID.TID 0000.0001)                   T
(PID.TID 0000.0001)     ;
(PID.TID 0000.0001) freeSurfFac =   /* Implicit free surface factor */
(PID.TID 0000.0001)                 1.000000000000000E+00
(PID.TID 0000.0001)     ;
(PID.TID 0000.0001) implicSurfPress =  /* Surface Pressure implicit factor (0-1)*/
(PID.TID 0000.0001)                 1.000000000000000E+00
(PID.TID 0000.0001)     ;
(PID.TID 0000.0001) implicDiv2DFlow =  /* Barot. Flow Div. implicit factor (0-1)*/
(PID.TID 0000.0001)                 1.000000000000000E+00
(PID.TID 0000.0001)     ;
(PID.TID 0000.0001) uniformLin_PhiSurf = /* use uniform Bo_surf on/off flag*/
(PID.TID 0000.0001)                   T
(PID.TID 0000.0001)     ;
(PID.TID 0000.0001) uniformFreeSurfLev = /* free-surface level-index is uniform */
(PID.TID 0000.0001)                   T
(PID.TID 0000.0001)     ;
(PID.TID 0000.0001) hFacMin =   /* minimum partial cell factor (hFac) */
(PID.TID 0000.0001)                 2.000000000000000E-01
(PID.TID 0000.0001)     ;
(PID.TID 0000.0001) hFacMinDr = /* minimum partial cell thickness ( m) */
(PID.TID 0000.0001)                 5.000000000000000E+00
(PID.TID 0000.0001)     ;
(PID.TID 0000.0001) exactConserv =  /* Exact Volume Conservation on/off flag*/
(PID.TID 0000.0001)                   T
(PID.TID 0000.0001)     ;
(PID.TID 0000.0001) linFSConserveTr = /* Tracer correction for Lin Free Surface on/off flag*/
(PID.TID 0000.0001)                   F
(PID.TID 0000.0001)     ;
(PID.TID 0000.0001) nonlinFreeSurf = /* Non-linear Free Surf. options (-1,0,1,2,3)*/
(PID.TID 0000.0001)                       4
(PID.TID 0000.0001)      -1,0= Off ; 1,2,3= On, 2=+rescale gU,gV, 3=+update cg2d solv.
(PID.TID 0000.0001)     ;
(PID.TID 0000.0001) hFacInf =   /* lower threshold for hFac (nonlinFreeSurf only)*/
(PID.TID 0000.0001)                 2.000000000000000E-01
(PID.TID 0000.0001)     ;
(PID.TID 0000.0001) hFacSup =   /* upper threshold for hFac (nonlinFreeSurf only)*/
(PID.TID 0000.0001)                 2.000000000000000E+00
(PID.TID 0000.0001)     ;
(PID.TID 0000.0001) select_rStar = /* r* Vertical coord. options (=0 r coord.; >0 uses r*)*/
(PID.TID 0000.0001)                       2
(PID.TID 0000.0001)     ;
(PID.TID 0000.0001) useRealFreshWaterFlux = /* Real Fresh Water Flux on/off flag*/
(PID.TID 0000.0001)                   T
(PID.TID 0000.0001)     ;
(PID.TID 0000.0001) temp_EvPrRn = /* Temp. of Evap/Prec/R (UNSET=use local T)(oC)*/
(PID.TID 0000.0001)                 1.234567000000000E+05
(PID.TID 0000.0001)     ;
(PID.TID 0000.0001) salt_EvPrRn = /* Salin. of Evap/Prec/R (UNSET=use local S)(psu)*/
(PID.TID 0000.0001)                 0.000000000000000E+00
(PID.TID 0000.0001)     ;
(PID.TID 0000.0001) selectAddFluid = /* option for mass source/sink of fluid (=0: off) */
(PID.TID 0000.0001)                       0
(PID.TID 0000.0001)     ;
(PID.TID 0000.0001) temp_addMass = /* Temp. of addMass array (UNSET=use local T)(oC)*/
(PID.TID 0000.0001)                 1.234567000000000E+05
(PID.TID 0000.0001)     ;
(PID.TID 0000.0001) salt_addMass = /* Salin. of addMass array (UNSET=use local S)(psu)*/
(PID.TID 0000.0001)                 0.000000000000000E+00
(PID.TID 0000.0001)     ;
(PID.TID 0000.0001) use3Dsolver = /* use 3-D pressure solver on/off flag */
(PID.TID 0000.0001)                   F
(PID.TID 0000.0001)     ;
(PID.TID 0000.0001) nonHydrostatic =  /* Non-Hydrostatic on/off flag */
(PID.TID 0000.0001)                   F
(PID.TID 0000.0001)     ;
(PID.TID 0000.0001) nh_Am2 = /* Non-Hydrostatic terms scaling factor */
(PID.TID 0000.0001)                 1.000000000000000E+00
(PID.TID 0000.0001)     ;
(PID.TID 0000.0001) implicitNHPress = /* Non-Hyd Pressure implicit factor (0-1)*/
(PID.TID 0000.0001)                 1.000000000000000E+00
(PID.TID 0000.0001)     ;
(PID.TID 0000.0001) selectNHfreeSurf = /* Non-Hyd (free-)Surface option */
(PID.TID 0000.0001)                       0
(PID.TID 0000.0001)     ;
(PID.TID 0000.0001) quasiHydrostatic = /* Quasi-Hydrostatic on/off flag */
(PID.TID 0000.0001)                   F
(PID.TID 0000.0001)     ;
(PID.TID 0000.0001) calc_wVelocity = /* vertical velocity calculation on/off flag */
(PID.TID 0000.0001)                   T
(PID.TID 0000.0001)     ;
(PID.TID 0000.0001) momStepping =  /* Momentum equation on/off flag */
(PID.TID 0000.0001)                   T
(PID.TID 0000.0001)     ;
(PID.TID 0000.0001) vectorInvariantMomentum= /* Vector-Invariant Momentum on/off */
(PID.TID 0000.0001)                   T
(PID.TID 0000.0001)     ;
(PID.TID 0000.0001) momAdvection =  /* Momentum advection on/off flag */
(PID.TID 0000.0001)                   T
(PID.TID 0000.0001)     ;
(PID.TID 0000.0001) momViscosity =  /* Momentum viscosity on/off flag */
(PID.TID 0000.0001)                   T
(PID.TID 0000.0001)     ;
(PID.TID 0000.0001) momImplVertAdv= /* Momentum implicit vert. advection on/off*/
(PID.TID 0000.0001)                   F
(PID.TID 0000.0001)     ;
(PID.TID 0000.0001) implicitViscosity = /* Implicit viscosity on/off flag */
(PID.TID 0000.0001)                   T
(PID.TID 0000.0001)     ;
(PID.TID 0000.0001) selectImplicitDrag= /* Implicit bot Drag options (0,1,2)*/
(PID.TID 0000.0001)                       0
(PID.TID 0000.0001)     0= Expl. ; 1= Impl. on provis. Vel ; 2= Fully Impl (with surf.P)
(PID.TID 0000.0001)     ;
(PID.TID 0000.0001) metricTerms =  /* metric-Terms on/off flag */
(PID.TID 0000.0001)                   F
(PID.TID 0000.0001)     ;
(PID.TID 0000.0001) useNHMTerms = /* Non-Hydrostatic Metric-Terms on/off */
(PID.TID 0000.0001)                   F
(PID.TID 0000.0001)     ;
(PID.TID 0000.0001) selectCoriMap = /* Coriolis Map options (0,1,2,3)*/
(PID.TID 0000.0001)                       2
(PID.TID 0000.0001)     0= f-Plane ; 1= Beta-Plane ; 2= Spherical ; 3= read from file
(PID.TID 0000.0001)     ;
(PID.TID 0000.0001) use3dCoriolis = /* 3-D Coriolis on/off flag */
(PID.TID 0000.0001)                   F
(PID.TID 0000.0001)     ;
(PID.TID 0000.0001) useCoriolis =  /* Coriolis on/off flag */
(PID.TID 0000.0001)                   T
(PID.TID 0000.0001)     ;
(PID.TID 0000.0001) useCDscheme =  /* CD scheme on/off flag */
(PID.TID 0000.0001)                   F
(PID.TID 0000.0001)     ;
(PID.TID 0000.0001) useEnergyConservingCoriolis= /* Flx-Form Coriolis scheme flag */
(PID.TID 0000.0001)                   F
(PID.TID 0000.0001)     ;
(PID.TID 0000.0001) useJamartWetPoints= /* Coriolis WetPoints method flag */
(PID.TID 0000.0001)                   T
(PID.TID 0000.0001)     ;
(PID.TID 0000.0001) useJamartMomAdv= /* V.I Non-linear terms Jamart flag */
(PID.TID 0000.0001)                   F
(PID.TID 0000.0001)     ;
(PID.TID 0000.0001) useAbsVorticity= /* V.I Works with f+zeta in Coriolis */
(PID.TID 0000.0001)                   F
(PID.TID 0000.0001)     ;
(PID.TID 0000.0001) selectVortScheme= /* V.I Scheme selector for Vorticity-Term */
(PID.TID 0000.0001)                       1
(PID.TID 0000.0001)    = 0 : enstrophy (Shallow-Water Eq.) conserving scheme by Sadourny, JAS 75
(PID.TID 0000.0001)    = 1 : same as 0 with modified hFac
(PID.TID 0000.0001)    = 2 : energy conserving scheme (used by Sadourny in JAS 75 paper)
(PID.TID 0000.0001)    = 3 : energy (general) and enstrophy (2D, nonDiv.) conserving scheme
(PID.TID 0000.0001)          from Sadourny (Burridge & Haseler, ECMWF Rep.4, 1977)
(PID.TID 0000.0001)     ;
(PID.TID 0000.0001) upwindVorticity= /* V.I Upwind bias vorticity flag */
(PID.TID 0000.0001)                   F
(PID.TID 0000.0001)     ;
(PID.TID 0000.0001) highOrderVorticity= /* V.I High order vort. advect. flag */
(PID.TID 0000.0001)                   F
(PID.TID 0000.0001)     ;
(PID.TID 0000.0001) upwindShear= /* V.I Upwind vertical Shear advection flag */
(PID.TID 0000.0001)                   F
(PID.TID 0000.0001)     ;
(PID.TID 0000.0001) selectKEscheme= /* V.I Kinetic Energy scheme selector */
(PID.TID 0000.0001)                       0
(PID.TID 0000.0001)     ;
(PID.TID 0000.0001) momForcing =  /* Momentum forcing on/off flag */
(PID.TID 0000.0001)                   T
(PID.TID 0000.0001)     ;
(PID.TID 0000.0001) momPressureForcing =  /* Momentum pressure term on/off flag */
(PID.TID 0000.0001)                   T
(PID.TID 0000.0001)     ;
(PID.TID 0000.0001) implicitIntGravWave= /* Implicit Internal Gravity Wave flag */
(PID.TID 0000.0001)                   F
(PID.TID 0000.0001)     ;
(PID.TID 0000.0001) staggerTimeStep =    /* Stagger time stepping on/off flag */
(PID.TID 0000.0001)                   T
(PID.TID 0000.0001)     ;
(PID.TID 0000.0001) doResetHFactors = /* reset thickness factors @ each time-step */
(PID.TID 0000.0001)                   F
(PID.TID 0000.0001)     ;
(PID.TID 0000.0001) multiDimAdvection =  /* enable/disable Multi-Dim Advection */
(PID.TID 0000.0001)                   T
(PID.TID 0000.0001)     ;
(PID.TID 0000.0001) useMultiDimAdvec =   /* Multi-Dim Advection is/is-not used */
(PID.TID 0000.0001)                   T
(PID.TID 0000.0001)     ;
(PID.TID 0000.0001) implicitDiffusion = /* Implicit Diffusion on/off flag */
(PID.TID 0000.0001)                   T
(PID.TID 0000.0001)     ;
(PID.TID 0000.0001) tempStepping =  /* Temperature equation on/off flag */
(PID.TID 0000.0001)                   T
(PID.TID 0000.0001)     ;
(PID.TID 0000.0001) tempAdvection = /* Temperature advection on/off flag */
(PID.TID 0000.0001)                   T
(PID.TID 0000.0001)     ;
(PID.TID 0000.0001) tempImplVertAdv = /* Temp. implicit vert. advection on/off */
(PID.TID 0000.0001)                   T
(PID.TID 0000.0001)     ;
(PID.TID 0000.0001) tempForcing  =  /* Temperature forcing on/off flag */
(PID.TID 0000.0001)                   T
(PID.TID 0000.0001)     ;
(PID.TID 0000.0001) balanceQnet  =  /* balance net heat-flux on/off flag */
(PID.TID 0000.0001)                   F
(PID.TID 0000.0001)     ;
(PID.TID 0000.0001) doThetaClimRelax = /* apply SST relaxation on/off flag */
(PID.TID 0000.0001)                   F
(PID.TID 0000.0001)     ;
(PID.TID 0000.0001) balanceThetaClimRelax= /* balance SST relaxation on/off flag */
(PID.TID 0000.0001)                   F
(PID.TID 0000.0001)     ;
(PID.TID 0000.0001) tempIsActiveTr = /* Temp. is a dynamically Active Tracer */
(PID.TID 0000.0001)                   T
(PID.TID 0000.0001)     ;
(PID.TID 0000.0001) saltStepping =  /* Salinity equation on/off flag */
(PID.TID 0000.0001)                   T
(PID.TID 0000.0001)     ;
(PID.TID 0000.0001) saltAdvection = /* Salinity advection on/off flag */
(PID.TID 0000.0001)                   T
(PID.TID 0000.0001)     ;
(PID.TID 0000.0001) saltImplVertAdv = /* Sali. implicit vert. advection on/off */
(PID.TID 0000.0001)                   T
(PID.TID 0000.0001)     ;
(PID.TID 0000.0001) saltForcing  =  /* Salinity forcing on/off flag */
(PID.TID 0000.0001)                   T
(PID.TID 0000.0001)     ;
(PID.TID 0000.0001) balanceEmPmR =  /* balance net fresh-water flux on/off flag */
(PID.TID 0000.0001)                   F
(PID.TID 0000.0001)     ;
(PID.TID 0000.0001) doSaltClimRelax = /* apply SSS relaxation on/off flag */
(PID.TID 0000.0001)                   F
(PID.TID 0000.0001)     ;
(PID.TID 0000.0001) balanceSaltClimRelax= /* balance SSS relaxation on/off flag */
(PID.TID 0000.0001)                   T
(PID.TID 0000.0001)     ;
(PID.TID 0000.0001) saltIsActiveTr = /* Salt  is a dynamically Active Tracer */
(PID.TID 0000.0001)                   T
(PID.TID 0000.0001)     ;
(PID.TID 0000.0001)  readBinaryPrec = /* Precision used for reading binary files */
(PID.TID 0000.0001)                      32
(PID.TID 0000.0001)     ;
(PID.TID 0000.0001) writeBinaryPrec = /* Precision used for writing binary files */
(PID.TID 0000.0001)                      32
(PID.TID 0000.0001)     ;
(PID.TID 0000.0001)  rwSuffixType =   /* select format of mds file suffix */
(PID.TID 0000.0001)                       0
(PID.TID 0000.0001)    = 0 : myIter (I10.10) ;   = 1 : 100*myTime (100th sec) ;
(PID.TID 0000.0001)    = 2 : myTime (seconds);   = 3 : myTime/360 (10th of hr);
(PID.TID 0000.0001)    = 4 : myTime/3600 (hours)
(PID.TID 0000.0001)     ;
(PID.TID 0000.0001)  globalFiles = /* write "global" (=not per tile) files */
(PID.TID 0000.0001)                   F
(PID.TID 0000.0001)     ;
(PID.TID 0000.0001)  useSingleCpuIO = /* only master MPI process does I/O */
(PID.TID 0000.0001)                   T
(PID.TID 0000.0001)     ;
(PID.TID 0000.0001)  useSingleCpuInput = /* only master process reads input */
(PID.TID 0000.0001)                   T
(PID.TID 0000.0001)     ;
(PID.TID 0000.0001) /* debLev[*]  : level of debug & auxiliary message printing */
(PID.TID 0000.0001) debLevZero =  0 ; /* level of disabled aux. msg printing */
(PID.TID 0000.0001)    debLevA =  1 ; /* level of minimum  aux. msg printing */
(PID.TID 0000.0001)    debLevB =  2 ; /* level of low aux. print (report read-file opening)*/
(PID.TID 0000.0001)    debLevC =  3 ; /* level of moderate debug prt (most pkgs debug msg) */
(PID.TID 0000.0001)    debLevD =  4 ; /* level of enhanced debug prt (add DEBUG_STATS prt) */
(PID.TID 0000.0001)    debLevE =  5 ; /* level of extensive debug printing */
(PID.TID 0000.0001) debugLevel =  /* select debug printing level */
(PID.TID 0000.0001)                       1
(PID.TID 0000.0001)     ;
(PID.TID 0000.0001)  plotLevel =  /* select PLOT_FIELD printing level */
(PID.TID 0000.0001)                       1
(PID.TID 0000.0001)     ;
(PID.TID 0000.0001) //
(PID.TID 0000.0001) // Elliptic solver(s) paramters ( PARM02 in namelist )
(PID.TID 0000.0001) //
(PID.TID 0000.0001) cg2dMaxIters =   /* Upper limit on 2d con. grad iterations  */
(PID.TID 0000.0001)                     300
(PID.TID 0000.0001)     ;
(PID.TID 0000.0001) cg2dChkResFreq =   /* 2d con. grad convergence test frequency */
(PID.TID 0000.0001)                       1
(PID.TID 0000.0001)     ;
(PID.TID 0000.0001) cg2dUseMinResSol= /* use cg2d last-iter(=0) / min-resid.(=1) solution */
(PID.TID 0000.0001)                       0
(PID.TID 0000.0001)     ;
(PID.TID 0000.0001) cg2dTargetResidual =   /* 2d con. grad target residual  */
(PID.TID 0000.0001)                 1.000000000000000E-07
(PID.TID 0000.0001)     ;
(PID.TID 0000.0001) cg2dTargetResWunit =   /* CG2d target residual [W units] */
(PID.TID 0000.0001)                 1.000000000000000E-12
(PID.TID 0000.0001)     ;
(PID.TID 0000.0001) cg2dPreCondFreq =   /* Freq. for updating cg2d preconditioner */
(PID.TID 0000.0001)                       1
(PID.TID 0000.0001)     ;
(PID.TID 0000.0001) useSRCGSolver =  /* use single reduction CG solver(s) */
(PID.TID 0000.0001)                   F
(PID.TID 0000.0001)     ;
(PID.TID 0000.0001) printResidualFreq = /* Freq. for printing CG residual */
(PID.TID 0000.0001)                       0
(PID.TID 0000.0001)     ;
(PID.TID 0000.0001) //
(PID.TID 0000.0001) // Time stepping paramters ( PARM03 in namelist )
(PID.TID 0000.0001) //
(PID.TID 0000.0001) deltaTMom =   /* Momentum equation timestep ( s ) */
(PID.TID 0000.0001)                 3.600000000000000E+03
(PID.TID 0000.0001)     ;
(PID.TID 0000.0001) deltaTFreeSurf = /* FreeSurface equation timestep ( s ) */
(PID.TID 0000.0001)                 3.600000000000000E+03
(PID.TID 0000.0001)     ;
(PID.TID 0000.0001) dTtracerLev =  /* Tracer equation timestep ( s ) */
(PID.TID 0000.0001)    50 @  3.600000000000000E+03              /* K =  1: 50 */
(PID.TID 0000.0001)     ;
(PID.TID 0000.0001) deltaTClock  =   /* Model clock timestep ( s ) */
(PID.TID 0000.0001)                 3.600000000000000E+03
(PID.TID 0000.0001)     ;
(PID.TID 0000.0001) cAdjFreq =   /* Convective adjustment interval ( s ) */
(PID.TID 0000.0001)                 0.000000000000000E+00
(PID.TID 0000.0001)     ;
(PID.TID 0000.0001) momForcingOutAB = /* =1: take Momentum Forcing out of Adams-Bash. stepping */
(PID.TID 0000.0001)                       1
(PID.TID 0000.0001)     ;
(PID.TID 0000.0001) tracForcingOutAB = /* =1: take T,S,pTr Forcing out of Adams-Bash. stepping */
(PID.TID 0000.0001)                       1
(PID.TID 0000.0001)     ;
(PID.TID 0000.0001) momDissip_In_AB = /* put Dissipation Tendency in Adams-Bash. stepping */
(PID.TID 0000.0001)                   F
(PID.TID 0000.0001)     ;
(PID.TID 0000.0001) doAB_onGtGs = /* apply AB on Tendencies (rather than on T,S)*/
(PID.TID 0000.0001)                   T
(PID.TID 0000.0001)     ;
(PID.TID 0000.0001) abEps =   /* Adams-Bashforth-2 stabilizing weight */
(PID.TID 0000.0001)                 1.000000000000000E-01
(PID.TID 0000.0001)     ;
(PID.TID 0000.0001) applyExchUV_early = /* Apply EXCH to U,V earlier in time-step */
(PID.TID 0000.0001)                   F
(PID.TID 0000.0001)     ;
(PID.TID 0000.0001) pickupStrictlyMatch= /* stop if pickup do not strictly match */
(PID.TID 0000.0001)                   F
(PID.TID 0000.0001)     ;
(PID.TID 0000.0001) nIter0   =   /* Run starting timestep number */
(PID.TID 0000.0001)                       1
(PID.TID 0000.0001)     ;
(PID.TID 0000.0001) nTimeSteps = /* Number of timesteps */
(PID.TID 0000.0001)                  175295
(PID.TID 0000.0001)     ;
(PID.TID 0000.0001) nEndIter =   /* Run ending timestep number */
(PID.TID 0000.0001)                  175296
(PID.TID 0000.0001)     ;
(PID.TID 0000.0001) baseTime =   /* Model base time ( s ) */
(PID.TID 0000.0001)                 0.000000000000000E+00
(PID.TID 0000.0001)     ;
(PID.TID 0000.0001) startTime =  /* Run start time ( s ) */
(PID.TID 0000.0001)                 3.600000000000000E+03
(PID.TID 0000.0001)     ;
(PID.TID 0000.0001) endTime  =   /* Integration ending time ( s ) */
(PID.TID 0000.0001)                 6.310656000000000E+08
(PID.TID 0000.0001)     ;
(PID.TID 0000.0001) pChkPtFreq = /* Permanent restart/pickup file interval ( s ) */
(PID.TID 0000.0001)                 3.153600000000000E+07
(PID.TID 0000.0001)     ;
(PID.TID 0000.0001) chkPtFreq  = /* Rolling restart/pickup file interval ( s ) */
(PID.TID 0000.0001)                 3.153600000000000E+07
(PID.TID 0000.0001)     ;
(PID.TID 0000.0001) pickup_write_mdsio =   /* Model IO flag. */
(PID.TID 0000.0001)                   T
(PID.TID 0000.0001)     ;
(PID.TID 0000.0001) pickup_read_mdsio =   /* Model IO flag. */
(PID.TID 0000.0001)                   T
(PID.TID 0000.0001)     ;
(PID.TID 0000.0001) writePickupAtEnd =   /* Model IO flag. */
(PID.TID 0000.0001)                   T
(PID.TID 0000.0001)     ;
(PID.TID 0000.0001) dumpFreq =   /* Model state write out interval ( s ). */
(PID.TID 0000.0001)                 0.000000000000000E+00
(PID.TID 0000.0001)     ;
(PID.TID 0000.0001) dumpInitAndLast= /* write out Initial & Last iter. model state */
(PID.TID 0000.0001)                   T
(PID.TID 0000.0001)     ;
(PID.TID 0000.0001) snapshot_mdsio =   /* Model IO flag. */
(PID.TID 0000.0001)                   T
(PID.TID 0000.0001)     ;
(PID.TID 0000.0001) monitorFreq =   /* Monitor output interval ( s ). */
(PID.TID 0000.0001)                 7.200000000000000E+03
(PID.TID 0000.0001)     ;
(PID.TID 0000.0001) monitorSelect = /* select group of variables to monitor */
(PID.TID 0000.0001)                       3
(PID.TID 0000.0001)     ;
(PID.TID 0000.0001) monitor_stdio =   /* Model IO flag. */
(PID.TID 0000.0001)                   T
(PID.TID 0000.0001)     ;
(PID.TID 0000.0001) externForcingPeriod =   /* forcing period (s) */
(PID.TID 0000.0001)                 0.000000000000000E+00
(PID.TID 0000.0001)     ;
(PID.TID 0000.0001) externForcingCycle =   /* period of the cyle (s). */
(PID.TID 0000.0001)                 0.000000000000000E+00
(PID.TID 0000.0001)     ;
(PID.TID 0000.0001) tauThetaClimRelax =   /* relaxation time scale (s) */
(PID.TID 0000.0001)                 0.000000000000000E+00
(PID.TID 0000.0001)     ;
(PID.TID 0000.0001) tauSaltClimRelax =   /* relaxation time scale (s) */
(PID.TID 0000.0001)                 0.000000000000000E+00
(PID.TID 0000.0001)     ;
(PID.TID 0000.0001) latBandClimRelax =   /* max. Lat. where relaxation */
(PID.TID 0000.0001)                 1.800000000000000E+02
(PID.TID 0000.0001)     ;
(PID.TID 0000.0001) //
(PID.TID 0000.0001) // Gridding paramters ( PARM04 in namelist )
(PID.TID 0000.0001) //
(PID.TID 0000.0001) usingCartesianGrid = /* Cartesian coordinates flag ( True/False ) */
(PID.TID 0000.0001)                   F
(PID.TID 0000.0001)     ;
(PID.TID 0000.0001) usingCylindricalGrid = /* Cylindrical coordinates flag ( True/False ) */
(PID.TID 0000.0001)                   F
(PID.TID 0000.0001)     ;
(PID.TID 0000.0001) usingSphericalPolarGrid = /* Spherical coordinates flag ( True/False ) */
(PID.TID 0000.0001)                   F
(PID.TID 0000.0001)     ;
(PID.TID 0000.0001) usingCurvilinearGrid = /* Curvilinear coordinates flag ( True/False ) */
(PID.TID 0000.0001)                   T
(PID.TID 0000.0001)     ;
(PID.TID 0000.0001) useMin4hFacEdges = /* set hFacW,S as minimum of adjacent hFacC factor */
(PID.TID 0000.0001)                   F
(PID.TID 0000.0001)     ;
(PID.TID 0000.0001) selectSigmaCoord = /* Hybrid-Sigma Vert. Coordinate option */
(PID.TID 0000.0001)                       0
(PID.TID 0000.0001)     ;
(PID.TID 0000.0001) rSigmaBnd = /* r/sigma transition ( units of r ==  m ) */
(PID.TID 0000.0001)                 1.234567000000000E+05
(PID.TID 0000.0001)     ;
(PID.TID 0000.0001) rkSign =   /* index orientation relative to vertical coordinate */
(PID.TID 0000.0001)                -1.000000000000000E+00
(PID.TID 0000.0001)     ;
(PID.TID 0000.0001) gravitySign = /* gravity orientation relative to vertical coordinate */
(PID.TID 0000.0001)                -1.000000000000000E+00
(PID.TID 0000.0001)     ;
(PID.TID 0000.0001) seaLev_Z =  /* reference height of sea-level [m] */
(PID.TID 0000.0001)                 0.000000000000000E+00
(PID.TID 0000.0001)     ;
(PID.TID 0000.0001) top_Pres =  /* reference pressure at the top [Pa] */
(PID.TID 0000.0001)                 0.000000000000000E+00
(PID.TID 0000.0001)     ;
(PID.TID 0000.0001) mass2rUnit = /* convert mass per unit area [kg/m2] to r-units [m] */
(PID.TID 0000.0001)                 9.718172983479105E-04
(PID.TID 0000.0001)     ;
(PID.TID 0000.0001) rUnit2mass = /* convert r-units [m] to mass per unit area [kg/m2] */
(PID.TID 0000.0001)                 1.029000000000000E+03
(PID.TID 0000.0001)     ;
(PID.TID 0000.0001) drC =   /* C spacing ( units of r ) */
(PID.TID 0000.0001)                 5.000000000000000E+00,      /* K =  1 */
(PID.TID 0000.0001)     6 @  1.000000000000000E+01,             /* K =  2:  7 */
(PID.TID 0000.0001)                 1.000500000000000E+01,      /* K =  8 */
(PID.TID 0000.0001)                 1.002000000000000E+01,      /* K =  9 */
(PID.TID 0000.0001)                 1.007000000000000E+01,      /* K = 10 */
(PID.TID 0000.0001)                 1.021500000000000E+01,      /* K = 11 */
(PID.TID 0000.0001)                 1.056000000000000E+01,      /* K = 12 */
(PID.TID 0000.0001)                 1.128000000000000E+01,      /* K = 13 */
(PID.TID 0000.0001)                 1.259000000000000E+01,      /* K = 14 */
(PID.TID 0000.0001)                 1.473000000000000E+01,      /* K = 15 */
(PID.TID 0000.0001)                 1.793000000000000E+01,      /* K = 16 */
(PID.TID 0000.0001)                 2.233500000000000E+01,      /* K = 17 */
(PID.TID 0000.0001)                 2.797500000000000E+01,      /* K = 18 */
(PID.TID 0000.0001)                 3.476000000000001E+01,      /* K = 19 */
(PID.TID 0000.0001)                 4.246000000000000E+01,      /* K = 20 */
(PID.TID 0000.0001)                 5.075000000000000E+01,      /* K = 21 */
(PID.TID 0000.0001)                 5.925000000000000E+01,      /* K = 22 */
(PID.TID 0000.0001)                 6.753999999999999E+01,      /* K = 23 */
(PID.TID 0000.0001)                 7.524000000000001E+01,      /* K = 24 */
(PID.TID 0000.0001)                 8.202500000000001E+01,      /* K = 25 */
(PID.TID 0000.0001)                 8.766500000000001E+01,      /* K = 26 */
(PID.TID 0000.0001)                 9.206999999999999E+01,      /* K = 27 */
(PID.TID 0000.0001)                 9.527000000000000E+01,      /* K = 28 */
(PID.TID 0000.0001)                 9.741499999999999E+01,      /* K = 29 */
(PID.TID 0000.0001)                 9.875000000000000E+01,      /* K = 30 */
(PID.TID 0000.0001)                 9.963000000000000E+01,      /* K = 31 */
(PID.TID 0000.0001)                 1.006700000000000E+02,      /* K = 32 */
(PID.TID 0000.0001)                 1.029450000000000E+02,      /* K = 33 */
(PID.TID 0000.0001)                 1.079450000000000E+02,      /* K = 34 */
(PID.TID 0000.0001)                 1.170800000000000E+02,      /* K = 35 */
(PID.TID 0000.0001)                 1.309600000000000E+02,      /* K = 36 */
(PID.TID 0000.0001)                 1.490150000000000E+02,      /* K = 37 */
(PID.TID 0000.0001)                 1.698850000000000E+02,      /* K = 38 */
(PID.TID 0000.0001)                 1.921900000000000E+02,      /* K = 39 */
(PID.TID 0000.0001)                 2.150250000000000E+02,      /* K = 40 */
(PID.TID 0000.0001)                 2.380000000000000E+02,      /* K = 41 */
(PID.TID 0000.0001)                 2.610000000000000E+02,      /* K = 42 */
(PID.TID 0000.0001)                 2.840000000000000E+02,      /* K = 43 */
(PID.TID 0000.0001)                 3.070000000000000E+02,      /* K = 44 */
(PID.TID 0000.0001)                 3.300000000000000E+02,      /* K = 45 */
(PID.TID 0000.0001)                 3.530000000000000E+02,      /* K = 46 */
(PID.TID 0000.0001)                 3.760000000000000E+02,      /* K = 47 */
(PID.TID 0000.0001)                 3.990000000000000E+02,      /* K = 48 */
(PID.TID 0000.0001)                 4.220000000000000E+02,      /* K = 49 */
(PID.TID 0000.0001)                 4.450000000000000E+02,      /* K = 50 */
(PID.TID 0000.0001)                 2.282500000000000E+02       /* K = 51 */
(PID.TID 0000.0001)     ;
(PID.TID 0000.0001) drF =   /* W spacing ( units of r ) */
(PID.TID 0000.0001)     7 @  1.000000000000000E+01,             /* K =  1:  7 */
(PID.TID 0000.0001)                 1.001000000000000E+01,      /* K =  8 */
(PID.TID 0000.0001)                 1.003000000000000E+01,      /* K =  9 */
(PID.TID 0000.0001)                 1.011000000000000E+01,      /* K = 10 */
(PID.TID 0000.0001)                 1.032000000000000E+01,      /* K = 11 */
(PID.TID 0000.0001)                 1.080000000000000E+01,      /* K = 12 */
(PID.TID 0000.0001)                 1.176000000000000E+01,      /* K = 13 */
(PID.TID 0000.0001)                 1.342000000000000E+01,      /* K = 14 */
(PID.TID 0000.0001)                 1.604000000000000E+01,      /* K = 15 */
(PID.TID 0000.0001)                 1.982000000000000E+01,      /* K = 16 */
(PID.TID 0000.0001)                 2.485000000000000E+01,      /* K = 17 */
(PID.TID 0000.0001)                 3.110000000000000E+01,      /* K = 18 */
(PID.TID 0000.0001)                 3.842000000000000E+01,      /* K = 19 */
(PID.TID 0000.0001)                 4.650000000000000E+01,      /* K = 20 */
(PID.TID 0000.0001)                 5.500000000000000E+01,      /* K = 21 */
(PID.TID 0000.0001)                 6.350000000000000E+01,      /* K = 22 */
(PID.TID 0000.0001)                 7.158000000000000E+01,      /* K = 23 */
(PID.TID 0000.0001)                 7.890000000000001E+01,      /* K = 24 */
(PID.TID 0000.0001)                 8.515000000000001E+01,      /* K = 25 */
(PID.TID 0000.0001)                 9.018000000000001E+01,      /* K = 26 */
(PID.TID 0000.0001)                 9.395999999999999E+01,      /* K = 27 */
(PID.TID 0000.0001)                 9.658000000000000E+01,      /* K = 28 */
(PID.TID 0000.0001)                 9.825000000000000E+01,      /* K = 29 */
(PID.TID 0000.0001)                 9.925000000000000E+01,      /* K = 30 */
(PID.TID 0000.0001)                 1.000100000000000E+02,      /* K = 31 */
(PID.TID 0000.0001)                 1.013300000000000E+02,      /* K = 32 */
(PID.TID 0000.0001)                 1.045600000000000E+02,      /* K = 33 */
(PID.TID 0000.0001)                 1.113300000000000E+02,      /* K = 34 */
(PID.TID 0000.0001)                 1.228300000000000E+02,      /* K = 35 */
(PID.TID 0000.0001)                 1.390900000000000E+02,      /* K = 36 */
(PID.TID 0000.0001)                 1.589400000000000E+02,      /* K = 37 */
(PID.TID 0000.0001)                 1.808300000000000E+02,      /* K = 38 */
(PID.TID 0000.0001)                 2.035500000000000E+02,      /* K = 39 */
(PID.TID 0000.0001)                 2.265000000000000E+02,      /* K = 40 */
(PID.TID 0000.0001)                 2.495000000000000E+02,      /* K = 41 */
(PID.TID 0000.0001)                 2.725000000000000E+02,      /* K = 42 */
(PID.TID 0000.0001)                 2.955000000000000E+02,      /* K = 43 */
(PID.TID 0000.0001)                 3.185000000000000E+02,      /* K = 44 */
(PID.TID 0000.0001)                 3.415000000000000E+02,      /* K = 45 */
(PID.TID 0000.0001)                 3.645000000000000E+02,      /* K = 46 */
(PID.TID 0000.0001)                 3.875000000000000E+02,      /* K = 47 */
(PID.TID 0000.0001)                 4.105000000000000E+02,      /* K = 48 */
(PID.TID 0000.0001)                 4.335000000000000E+02,      /* K = 49 */
(PID.TID 0000.0001)                 4.565000000000000E+02       /* K = 50 */
(PID.TID 0000.0001)     ;
(PID.TID 0000.0001) radius_fromHorizGrid = /* sphere Radius of input horiz. grid */
(PID.TID 0000.0001)                 6.370000000000000E+06
(PID.TID 0000.0001)     ;
(PID.TID 0000.0001) rSphere =  /* Radius ( ignored - cartesian, m - spherical ) */
(PID.TID 0000.0001)                 6.370000000000000E+06
(PID.TID 0000.0001)     ;
(PID.TID 0000.0001) deepAtmosphere = /* Deep/Shallow Atmosphere flag (True/False) */
(PID.TID 0000.0001)                   F
(PID.TID 0000.0001)     ;
(PID.TID 0000.0001) xC =  /* xC(:,1,:,1) : P-point X coord ( deg. or m if cartesian) */
(PID.TID 0000.0001)                -4.081468768806280E+01,      /* I =  1 */
(PID.TID 0000.0001)                -3.957104986057077E+01,      /* I =  2 */
(PID.TID 0000.0001)                -3.832217028656162E+01,      /* I =  3 */
(PID.TID 0000.0001)                -3.706844413107324E+01,      /* I =  4 */
(PID.TID 0000.0001)                -3.581028225779612E+01,      /* I =  5 */
(PID.TID 0000.0001)                -3.454811012006861E+01,      /* I =  6 */
(PID.TID 0000.0001)                -3.328236654497336E+01,      /* I =  7 */
(PID.TID 0000.0001)                -3.201350241727823E+01,      /* I =  8 */
(PID.TID 0000.0001)                -3.074197927113779E+01,      /* I =  9 */
(PID.TID 0000.0001)                -2.946826779826338E+01,      /* I = 10 */
(PID.TID 0000.0001)                -2.819284628214859E+01,      /* I = 11 */
(PID.TID 0000.0001)                -2.691619896217756E+01,      /* I = 12 */
(PID.TID 0000.0001)                -2.563881425705264E+01,      /* I = 13 */
(PID.TID 0000.0001)                -2.436118574294736E+01,      /* I = 14 */
(PID.TID 0000.0001)                -2.308380103782244E+01,      /* I = 15 */
(PID.TID 0000.0001)                -2.180715371785141E+01,      /* I = 16 */
(PID.TID 0000.0001)                -2.053173220173662E+01,      /* I = 17 */
(PID.TID 0000.0001)                -1.925802072886221E+01,      /* I = 18 */
(PID.TID 0000.0001)                -1.798649758272177E+01,      /* I = 19 */
(PID.TID 0000.0001)                -1.671763345502664E+01,      /* I = 20 */
(PID.TID 0000.0001)                -1.545188987993139E+01,      /* I = 21 */
(PID.TID 0000.0001)                -1.418971774220388E+01,      /* I = 22 */
(PID.TID 0000.0001)                -1.293155586892676E+01,      /* I = 23 */
(PID.TID 0000.0001)                -1.167782971343838E+01,      /* I = 24 */
(PID.TID 0000.0001)                -1.042895013942923E+01,      /* I = 25 */
(PID.TID 0000.0001)                -9.185312311937196E+00,      /* I = 26 */
(PID.TID 0000.0001)                -7.947294700425999E+00,      /* I = 27 */
(PID.TID 0000.0001)                -6.715258197621779E+00,      /* I = 28 */
(PID.TID 0000.0001)                -5.489545357070952E+00,      /* I = 29 */
(PID.TID 0000.0001)                -4.270479749729759E+00       /* I = 30 */
(PID.TID 0000.0001)     ;
(PID.TID 0000.0001) yC =  /* yC(1,:,1,:) : P-point Y coord ( deg. or m if cartesian) */
(PID.TID 0000.0001)                -8.146222940368236E+01,      /* J =  1 */
(PID.TID 0000.0001)                -8.113083815286421E+01,      /* J =  2 */
(PID.TID 0000.0001)                -8.079504828233755E+01,      /* J =  3 */
(PID.TID 0000.0001)                -8.045491317322768E+01,      /* J =  4 */
(PID.TID 0000.0001)                -8.011048280590389E+01,      /* J =  5 */
(PID.TID 0000.0001)                -7.976180430515704E+01,      /* J =  6 */
(PID.TID 0000.0001)                -7.940892240526760E+01,      /* J =  7 */
(PID.TID 0000.0001)                -7.905187984845006E+01,      /* J =  8 */
(PID.TID 0000.0001)                -7.869071772754813E+01,      /* J =  9 */
(PID.TID 0000.0001)                -7.832547578199167E+01,      /* J = 10 */
(PID.TID 0000.0001)                -7.795619265432416E+01,      /* J = 11 */
(PID.TID 0000.0001)                -7.758290611340497E+01,      /* J = 12 */
(PID.TID 0000.0001)                -7.720565324926896E+01,      /* J = 13 */
(PID.TID 0000.0001)                -7.682447064385434E+01,      /* J = 14 */
(PID.TID 0000.0001)                -7.643939452107085E+01,      /* J = 15 */
(PID.TID 0000.0001)                -7.605046087901695E+01,      /* J = 16 */
(PID.TID 0000.0001)                -7.565770560699295E+01,      /* J = 17 */
(PID.TID 0000.0001)                -7.526116458910658E+01,      /* J = 18 */
(PID.TID 0000.0001)                -7.486087379640449E+01,      /* J = 19 */
(PID.TID 0000.0001)                -7.445686936886233E+01,      /* J = 20 */
(PID.TID 0000.0001)                -7.404918768854837E+01,      /* J = 21 */
(PID.TID 0000.0001)                -7.363786544493549E+01,      /* J = 22 */
(PID.TID 0000.0001)                -7.322293969328220E+01,      /* J = 23 */
(PID.TID 0000.0001)                -7.280444790682334E+01,      /* J = 24 */
(PID.TID 0000.0001)                -7.238242802328044E+01,      /* J = 25 */
(PID.TID 0000.0001)                -7.195691848614972E+01,      /* J = 26 */
(PID.TID 0000.0001)                -7.152795828082729E+01,      /* J = 27 */
(PID.TID 0000.0001)                -7.109558696482472E+01,      /* J = 28 */
(PID.TID 0000.0001)                -7.065984468855757E+01,      /* J = 29 */
(PID.TID 0000.0001)                -7.022077218177122E+01       /* J = 30 */
(PID.TID 0000.0001)     ;
(PID.TID 0000.0001) rcoord = /* P-point R coordinate (  units of r ) */
(PID.TID 0000.0001)                -5.000000000000000E+00,      /* K =  1 */
(PID.TID 0000.0001)                -1.500000000000000E+01,      /* K =  2 */
(PID.TID 0000.0001)                -2.500000000000000E+01,      /* K =  3 */
(PID.TID 0000.0001)                -3.500000000000000E+01,      /* K =  4 */
(PID.TID 0000.0001)                -4.500000000000000E+01,      /* K =  5 */
(PID.TID 0000.0001)                -5.500000000000000E+01,      /* K =  6 */
(PID.TID 0000.0001)                -6.500000000000000E+01,      /* K =  7 */
(PID.TID 0000.0001)                -7.500500000000000E+01,      /* K =  8 */
(PID.TID 0000.0001)                -8.502499999999999E+01,      /* K =  9 */
(PID.TID 0000.0001)                -9.509500000000000E+01,      /* K = 10 */
(PID.TID 0000.0001)                -1.053100000000000E+02,      /* K = 11 */
(PID.TID 0000.0001)                -1.158700000000000E+02,      /* K = 12 */
(PID.TID 0000.0001)                -1.271500000000000E+02,      /* K = 13 */
(PID.TID 0000.0001)                -1.397400000000000E+02,      /* K = 14 */
(PID.TID 0000.0001)                -1.544700000000000E+02,      /* K = 15 */
(PID.TID 0000.0001)                -1.724000000000000E+02,      /* K = 16 */
(PID.TID 0000.0001)                -1.947350000000000E+02,      /* K = 17 */
(PID.TID 0000.0001)                -2.227100000000000E+02,      /* K = 18 */
(PID.TID 0000.0001)                -2.574700000000000E+02,      /* K = 19 */
(PID.TID 0000.0001)                -2.999300000000000E+02,      /* K = 20 */
(PID.TID 0000.0001)                -3.506800000000000E+02,      /* K = 21 */
(PID.TID 0000.0001)                -4.099300000000000E+02,      /* K = 22 */
(PID.TID 0000.0001)                -4.774700000000000E+02,      /* K = 23 */
(PID.TID 0000.0001)                -5.527100000000000E+02,      /* K = 24 */
(PID.TID 0000.0001)                -6.347350000000000E+02,      /* K = 25 */
(PID.TID 0000.0001)                -7.224000000000000E+02,      /* K = 26 */
(PID.TID 0000.0001)                -8.144700000000000E+02,      /* K = 27 */
(PID.TID 0000.0001)                -9.097400000000000E+02,      /* K = 28 */
(PID.TID 0000.0001)                -1.007155000000000E+03,      /* K = 29 */
(PID.TID 0000.0001)                -1.105905000000000E+03,      /* K = 30 */
(PID.TID 0000.0001)                -1.205535000000000E+03,      /* K = 31 */
(PID.TID 0000.0001)                -1.306205000000000E+03,      /* K = 32 */
(PID.TID 0000.0001)                -1.409150000000000E+03,      /* K = 33 */
(PID.TID 0000.0001)                -1.517095000000000E+03,      /* K = 34 */
(PID.TID 0000.0001)                -1.634175000000000E+03,      /* K = 35 */
(PID.TID 0000.0001)                -1.765135000000000E+03,      /* K = 36 */
(PID.TID 0000.0001)                -1.914150000000000E+03,      /* K = 37 */
(PID.TID 0000.0001)                -2.084035000000000E+03,      /* K = 38 */
(PID.TID 0000.0001)                -2.276225000000000E+03,      /* K = 39 */
(PID.TID 0000.0001)                -2.491250000000000E+03,      /* K = 40 */
(PID.TID 0000.0001)                -2.729250000000000E+03,      /* K = 41 */
(PID.TID 0000.0001)                -2.990250000000000E+03,      /* K = 42 */
(PID.TID 0000.0001)                -3.274250000000000E+03,      /* K = 43 */
(PID.TID 0000.0001)                -3.581250000000000E+03,      /* K = 44 */
(PID.TID 0000.0001)                -3.911250000000000E+03,      /* K = 45 */
(PID.TID 0000.0001)                -4.264250000000000E+03,      /* K = 46 */
(PID.TID 0000.0001)                -4.640250000000000E+03,      /* K = 47 */
(PID.TID 0000.0001)                -5.039250000000000E+03,      /* K = 48 */
(PID.TID 0000.0001)                -5.461250000000000E+03,      /* K = 49 */
(PID.TID 0000.0001)                -5.906250000000000E+03       /* K = 50 */
(PID.TID 0000.0001)     ;
(PID.TID 0000.0001) rF =   /* W-Interf. R coordinate (  units of r ) */
(PID.TID 0000.0001)                 0.000000000000000E+00,      /* K =  1 */
(PID.TID 0000.0001)                -1.000000000000000E+01,      /* K =  2 */
(PID.TID 0000.0001)                -2.000000000000000E+01,      /* K =  3 */
(PID.TID 0000.0001)                -3.000000000000000E+01,      /* K =  4 */
(PID.TID 0000.0001)                -4.000000000000000E+01,      /* K =  5 */
(PID.TID 0000.0001)                -5.000000000000000E+01,      /* K =  6 */
(PID.TID 0000.0001)                -6.000000000000000E+01,      /* K =  7 */
(PID.TID 0000.0001)                -7.000000000000000E+01,      /* K =  8 */
(PID.TID 0000.0001)                -8.001000000000001E+01,      /* K =  9 */
(PID.TID 0000.0001)                -9.004000000000001E+01,      /* K = 10 */
(PID.TID 0000.0001)                -1.001500000000000E+02,      /* K = 11 */
(PID.TID 0000.0001)                -1.104700000000000E+02,      /* K = 12 */
(PID.TID 0000.0001)                -1.212700000000000E+02,      /* K = 13 */
(PID.TID 0000.0001)                -1.330300000000000E+02,      /* K = 14 */
(PID.TID 0000.0001)                -1.464500000000000E+02,      /* K = 15 */
(PID.TID 0000.0001)                -1.624900000000000E+02,      /* K = 16 */
(PID.TID 0000.0001)                -1.823100000000000E+02,      /* K = 17 */
(PID.TID 0000.0001)                -2.071600000000000E+02,      /* K = 18 */
(PID.TID 0000.0001)                -2.382600000000000E+02,      /* K = 19 */
(PID.TID 0000.0001)                -2.766799999999999E+02,      /* K = 20 */
(PID.TID 0000.0001)                -3.231799999999999E+02,      /* K = 21 */
(PID.TID 0000.0001)                -3.781799999999999E+02,      /* K = 22 */
(PID.TID 0000.0001)                -4.416799999999999E+02,      /* K = 23 */
(PID.TID 0000.0001)                -5.132600000000000E+02,      /* K = 24 */
(PID.TID 0000.0001)                -5.921600000000000E+02,      /* K = 25 */
(PID.TID 0000.0001)                -6.773099999999999E+02,      /* K = 26 */
(PID.TID 0000.0001)                -7.674900000000000E+02,      /* K = 27 */
(PID.TID 0000.0001)                -8.614500000000000E+02,      /* K = 28 */
(PID.TID 0000.0001)                -9.580300000000001E+02,      /* K = 29 */
(PID.TID 0000.0001)                -1.056280000000000E+03,      /* K = 30 */
(PID.TID 0000.0001)                -1.155530000000000E+03,      /* K = 31 */
(PID.TID 0000.0001)                -1.255540000000000E+03,      /* K = 32 */
(PID.TID 0000.0001)                -1.356870000000000E+03,      /* K = 33 */
(PID.TID 0000.0001)                -1.461430000000000E+03,      /* K = 34 */
(PID.TID 0000.0001)                -1.572760000000000E+03,      /* K = 35 */
(PID.TID 0000.0001)                -1.695590000000000E+03,      /* K = 36 */
(PID.TID 0000.0001)                -1.834680000000000E+03,      /* K = 37 */
(PID.TID 0000.0001)                -1.993620000000000E+03,      /* K = 38 */
(PID.TID 0000.0001)                -2.174450000000000E+03,      /* K = 39 */
(PID.TID 0000.0001)                -2.378000000000000E+03,      /* K = 40 */
(PID.TID 0000.0001)                -2.604500000000000E+03,      /* K = 41 */
(PID.TID 0000.0001)                -2.854000000000000E+03,      /* K = 42 */
(PID.TID 0000.0001)                -3.126500000000000E+03,      /* K = 43 */
(PID.TID 0000.0001)                -3.422000000000000E+03,      /* K = 44 */
(PID.TID 0000.0001)                -3.740500000000000E+03,      /* K = 45 */
(PID.TID 0000.0001)                -4.082000000000000E+03,      /* K = 46 */
(PID.TID 0000.0001)                -4.446500000000000E+03,      /* K = 47 */
(PID.TID 0000.0001)                -4.834000000000000E+03,      /* K = 48 */
(PID.TID 0000.0001)                -5.244500000000000E+03,      /* K = 49 */
(PID.TID 0000.0001)                -5.678000000000000E+03,      /* K = 50 */
(PID.TID 0000.0001)                -6.134500000000000E+03       /* K = 51 */
(PID.TID 0000.0001)     ;
(PID.TID 0000.0001) deepFacC = /* deep-model grid factor @ cell-Center (-) */
(PID.TID 0000.0001)    50 @  1.000000000000000E+00              /* K =  1: 50 */
(PID.TID 0000.0001)     ;
(PID.TID 0000.0001) deepFacF = /* deep-model grid factor @ W-Interface (-) */
(PID.TID 0000.0001)    51 @  1.000000000000000E+00              /* K =  1: 51 */
(PID.TID 0000.0001)     ;
(PID.TID 0000.0001) rVel2wUnit = /* convert units: rVel -> wSpeed (=1 if z-coord)*/
(PID.TID 0000.0001)    51 @  1.000000000000000E+00              /* K =  1: 51 */
(PID.TID 0000.0001)     ;
(PID.TID 0000.0001) wUnit2rVel = /* convert units: wSpeed -> rVel (=1 if z-coord)*/
(PID.TID 0000.0001)    51 @  1.000000000000000E+00              /* K =  1: 51 */
(PID.TID 0000.0001)     ;
(PID.TID 0000.0001) dBdrRef = /* Vertical grad. of reference buoyancy [(m/s/r)^2] */
(PID.TID 0000.0001)     3 @  0.000000000000000E+00,             /* K =  1:  3 */
(PID.TID 0000.0001)                 2.706065538651213E-04,      /* K =  4 */
(PID.TID 0000.0001)     2 @  0.000000000000000E+00,             /* K =  5:  6 */
(PID.TID 0000.0001)                 2.632794562663490E-04,      /* K =  7 */
(PID.TID 0000.0001)                 2.554318021231947E-04,      /* K =  8 */
(PID.TID 0000.0001)                 0.000000000000000E+00,      /* K =  9 */
(PID.TID 0000.0001)                 2.461524232360561E-04,      /* K = 10 */
(PID.TID 0000.0001)                 2.348694431245364E-04,      /* K = 11 */
(PID.TID 0000.0001)                 0.000000000000000E+00,      /* K = 12 */
(PID.TID 0000.0001)                 2.056847859884566E-04,      /* K = 13 */
(PID.TID 0000.0001)                 1.777764506003336E-04,      /* K = 14 */
(PID.TID 0000.0001)                 0.000000000000000E+00,      /* K = 15 */
(PID.TID 0000.0001)                 1.203533867077665E-04,      /* K = 16 */
(PID.TID 0000.0001)                 9.288540355629585E-05,      /* K = 17 */
(PID.TID 0000.0001)                 7.115862770365155E-05,      /* K = 18 */
(PID.TID 0000.0001)                 5.484365820533800E-05,      /* K = 19 */
(PID.TID 0000.0001)                 4.290935507113214E-05,      /* K = 20 */
(PID.TID 0000.0001)                 6.658747741703880E-05,      /* K = 21 */
(PID.TID 0000.0001)                 0.000000000000000E+00,      /* K = 22 */
(PID.TID 0000.0001)                 2.323718420342036E-05,      /* K = 23 */
(PID.TID 0000.0001)                 1.974682037962757E-05,      /* K = 24 */
(PID.TID 0000.0001)                 1.709468932536602E-05,      /* K = 25 */
(PID.TID 0000.0001)                 0.000000000000000E+00,      /* K = 26 */
(PID.TID 0000.0001)                 1.455436545977052E-05,      /* K = 27 */
(PID.TID 0000.0001)                 0.000000000000000E+00,      /* K = 28 */
(PID.TID 0000.0001)                 1.315287111980149E-05,      /* K = 29 */
(PID.TID 0000.0001)     2 @  0.000000000000000E+00,             /* K = 30: 31 */
(PID.TID 0000.0001)                 1.240968507885233E-05,      /* K = 32 */
(PID.TID 0000.0001)     2 @  0.000000000000000E+00,             /* K = 33: 34 */
(PID.TID 0000.0001)                 1.045141607964570E-05,      /* K = 35 */
(PID.TID 0000.0001)     3 @  0.000000000000000E+00,             /* K = 36: 38 */
(PID.TID 0000.0001)                 6.628797113709505E-06,      /* K = 39 */
(PID.TID 0000.0001)    11 @  0.000000000000000E+00              /* K = 40: 50 */
(PID.TID 0000.0001)     ;
(PID.TID 0000.0001) rotateGrid = /* use rotated grid ( True/False ) */
(PID.TID 0000.0001)                   F
(PID.TID 0000.0001)     ;
(PID.TID 0000.0001) phiEuler = /* Euler angle, rotation about original z-coordinate [rad] */
(PID.TID 0000.0001)                 0.000000000000000E+00
(PID.TID 0000.0001)     ;
(PID.TID 0000.0001) thetaEuler = /* Euler angle, rotation about new x-coordinate [rad] */
(PID.TID 0000.0001)                 0.000000000000000E+00
(PID.TID 0000.0001)     ;
(PID.TID 0000.0001) psiEuler = /* Euler angle, rotation about new z-coordinate [rad] */
(PID.TID 0000.0001)                 0.000000000000000E+00
(PID.TID 0000.0001)     ;
(PID.TID 0000.0001) dxF =  /* dxF(:,1,:,1) ( units: m ) */
(PID.TID 0000.0001)                 2.071152825743187E+04,      /* I =  1 */
(PID.TID 0000.0001)                 2.070365142756831E+04,      /* I =  2 */
(PID.TID 0000.0001)                 2.069635296570141E+04,      /* I =  3 */
(PID.TID 0000.0001)                 2.068965358413176E+04,      /* I =  4 */
(PID.TID 0000.0001)                 2.068357195583360E+04,      /* I =  5 */
(PID.TID 0000.0001)                 2.067812475356784E+04,      /* I =  6 */
(PID.TID 0000.0001)                 2.067332670125947E+04,      /* I =  7 */
(PID.TID 0000.0001)                 2.066919060389092E+04,      /* I =  8 */
(PID.TID 0000.0001)                 2.066572738985245E+04,      /* I =  9 */
(PID.TID 0000.0001)                 2.066294615597989E+04,      /* I = 10 */
(PID.TID 0000.0001)                 2.066085425372315E+04,      /* I = 11 */
(PID.TID 0000.0001)                 2.065945771525925E+04,      /* I = 12 */
(PID.TID 0000.0001)                 2.065874381268158E+04,      /* I = 13 */
(PID.TID 0000.0001)                 2.065874381268158E+04,      /* I = 14 */
(PID.TID 0000.0001)                 2.065945771525925E+04,      /* I = 15 */
(PID.TID 0000.0001)                 2.066085425372316E+04,      /* I = 16 */
(PID.TID 0000.0001)                 2.066294615597989E+04,      /* I = 17 */
(PID.TID 0000.0001)                 2.066572738985245E+04,      /* I = 18 */
(PID.TID 0000.0001)                 2.066919060389088E+04,      /* I = 19 */
(PID.TID 0000.0001)                 2.067332670125956E+04,      /* I = 20 */
(PID.TID 0000.0001)                 2.067812475356780E+04,      /* I = 21 */
(PID.TID 0000.0001)                 2.068357195583360E+04,      /* I = 22 */
(PID.TID 0000.0001)                 2.068965358413182E+04,      /* I = 23 */
(PID.TID 0000.0001)                 2.069635296570133E+04,      /* I = 24 */
(PID.TID 0000.0001)                 2.070365142756836E+04,      /* I = 25 */
(PID.TID 0000.0001)                 2.071152825743182E+04,      /* I = 26 */
(PID.TID 0000.0001)                 2.071996065138743E+04,      /* I = 27 */
(PID.TID 0000.0001)                 2.072892365863983E+04,      /* I = 28 */
(PID.TID 0000.0001)                 2.073839012765668E+04,      /* I = 29 */
(PID.TID 0000.0001)                 2.074833063718403E+04       /* I = 30 */
(PID.TID 0000.0001)     ;
(PID.TID 0000.0001) dxF =  /* dxF(1,:,1,:) ( units: m ) */
(PID.TID 0000.0001)                 2.071152825743187E+04,      /* J =  1 */
(PID.TID 0000.0001)                 2.109117491456033E+04,      /* J =  2 */
(PID.TID 0000.0001)                 2.148525648961724E+04,      /* J =  3 */
(PID.TID 0000.0001)                 2.189377348588603E+04,      /* J =  4 */
(PID.TID 0000.0001)                 2.231672440915243E+04,      /* J =  5 */
(PID.TID 0000.0001)                 2.275410689480659E+04,      /* J =  6 */
(PID.TID 0000.0001)                 2.320591873318126E+04,      /* J =  7 */
(PID.TID 0000.0001)                 2.367215879054831E+04,      /* J =  8 */
(PID.TID 0000.0001)                 2.415282782538908E+04,      /* J =  9 */
(PID.TID 0000.0001)                 2.464792920101809E+04,      /* J = 10 */
(PID.TID 0000.0001)                 2.515746949702995E+04,      /* J = 11 */
(PID.TID 0000.0001)                 2.568145902315334E+04,      /* J = 12 */
(PID.TID 0000.0001)                 2.621991223981432E+04,      /* J = 13 */
(PID.TID 0000.0001)                 2.677284809033052E+04,      /* J = 14 */
(PID.TID 0000.0001)                 2.734029025013979E+04,      /* J = 15 */
(PID.TID 0000.0001)                 2.792226729855568E+04,      /* J = 16 */
(PID.TID 0000.0001)                 2.851881281852892E+04,      /* J = 17 */
(PID.TID 0000.0001)                 2.912996543046302E+04,      /* J = 18 */
(PID.TID 0000.0001)                 2.975576876502299E+04,      /* J = 19 */
(PID.TID 0000.0001)                 3.039627138062681E+04,      /* J = 20 */
(PID.TID 0000.0001)                 3.105152663065675E+04,      /* J = 21 */
(PID.TID 0000.0001)                 3.172159248542454E+04,      /* J = 22 */
(PID.TID 0000.0001)                 3.240653131349731E+04,      /* J = 23 */
(PID.TID 0000.0001)                 3.310640962675057E+04,      /* J = 24 */
(PID.TID 0000.0001)                 3.382129779388320E+04,      /* J = 25 */
(PID.TID 0000.0001)                 3.455126972555294E+04,      /* J = 26 */
(PID.TID 0000.0001)                 3.529640253603521E+04,      /* J = 27 */
(PID.TID 0000.0001)                 3.605677618612848E+04,      /* J = 28 */
(PID.TID 0000.0001)                 3.683247311866502E+04,      /* J = 29 */
(PID.TID 0000.0001)                 3.762357793548112E+04       /* J = 30 */
(PID.TID 0000.0001)     ;
(PID.TID 0000.0001) dyF =  /* dyF(:,1,:,1) ( units: m ) */
(PID.TID 0000.0001)                 3.700742300337598E+04,      /* I =  1 */
(PID.TID 0000.0001)                 3.707905556394973E+04,      /* I =  2 */
(PID.TID 0000.0001)                 3.714471828319018E+04,      /* I =  3 */
(PID.TID 0000.0001)                 3.720441078960103E+04,      /* I =  4 */
(PID.TID 0000.0001)                 3.725813297080282E+04,      /* I =  5 */
(PID.TID 0000.0001)                 3.730588490725751E+04,      /* I =  6 */
(PID.TID 0000.0001)                 3.734766681359038E+04,      /* I =  7 */
(PID.TID 0000.0001)                 3.738347898712025E+04,      /* I =  8 */
(PID.TID 0000.0001)                 3.741332176340629E+04,      /* I =  9 */
(PID.TID 0000.0001)                 3.743719547859261E+04,      /* I = 10 */
(PID.TID 0000.0001)                 3.745510043824806E+04,      /* I = 11 */
(PID.TID 0000.0001)                 3.746703689267323E+04,      /* I = 12 */
(PID.TID 0000.0001)     2 @  3.747300501832417E+04,             /* I = 13: 14 */
(PID.TID 0000.0001)                 3.746703689267323E+04,      /* I = 15 */
(PID.TID 0000.0001)                 3.745510043824806E+04,      /* I = 16 */
(PID.TID 0000.0001)                 3.743719547859261E+04,      /* I = 17 */
(PID.TID 0000.0001)                 3.741332176340628E+04,      /* I = 18 */
(PID.TID 0000.0001)                 3.738347898712024E+04,      /* I = 19 */
(PID.TID 0000.0001)                 3.734766681359040E+04,      /* I = 20 */
(PID.TID 0000.0001)                 3.730588490725750E+04,      /* I = 21 */
(PID.TID 0000.0001)                 3.725813297080281E+04,      /* I = 22 */
(PID.TID 0000.0001)                 3.720441078960103E+04,      /* I = 23 */
(PID.TID 0000.0001)                 3.714471828319017E+04,      /* I = 24 */
(PID.TID 0000.0001)                 3.707905556394973E+04,      /* I = 25 */
(PID.TID 0000.0001)                 3.700742300337599E+04,      /* I = 26 */
(PID.TID 0000.0001)                 3.692982130617692E+04,      /* I = 27 */
(PID.TID 0000.0001)                 3.684625159269555E+04,      /* I = 28 */
(PID.TID 0000.0001)                 3.675671548992459E+04,      /* I = 29 */
(PID.TID 0000.0001)                 3.666121523181524E+04       /* I = 30 */
(PID.TID 0000.0001)     ;
(PID.TID 0000.0001) dyF =  /* dyF(1,:,1,:) ( units: m ) */
(PID.TID 0000.0001)                 3.700742300337598E+04,      /* J =  1 */
(PID.TID 0000.0001)                 3.745555642044499E+04,      /* J =  2 */
(PID.TID 0000.0001)                 3.790206217653974E+04,      /* J =  3 */
(PID.TID 0000.0001)                 3.834684105117956E+04,      /* J =  4 */
(PID.TID 0000.0001)                 3.878979459357282E+04,      /* J =  5 */
(PID.TID 0000.0001)                 3.923082521328924E+04,      /* J =  6 */
(PID.TID 0000.0001)                 3.966983623246408E+04,      /* J =  7 */
(PID.TID 0000.0001)                 4.010673190475840E+04,      /* J =  8 */
(PID.TID 0000.0001)                 4.054141740950450E+04,      /* J =  9 */
(PID.TID 0000.0001)                 4.097379882434454E+04,      /* J = 10 */
(PID.TID 0000.0001)                 4.140378308084428E+04,      /* J = 11 */
(PID.TID 0000.0001)                 4.183127790875583E+04,      /* J = 12 */
(PID.TID 0000.0001)                 4.225619177206317E+04,      /* J = 13 */
(PID.TID 0000.0001)                 4.267843379867976E+04,      /* J = 14 */
(PID.TID 0000.0001)                 4.309791371221616E+04,      /* J = 15 */
(PID.TID 0000.0001)                 4.351454176087940E+04,      /* J = 16 */
(PID.TID 0000.0001)                 4.392822864881465E+04,      /* J = 17 */
(PID.TID 0000.0001)                 4.433888547805120E+04,      /* J = 18 */
(PID.TID 0000.0001)                 4.474642369096899E+04,      /* J = 19 */
(PID.TID 0000.0001)                 4.515075502217317E+04,      /* J = 20 */
(PID.TID 0000.0001)                 4.555179145554101E+04,      /* J = 21 */
(PID.TID 0000.0001)                 4.594944520275577E+04,      /* J = 22 */
(PID.TID 0000.0001)                 4.634362867401398E+04,      /* J = 23 */
(PID.TID 0000.0001)                 4.673425447947427E+04,      /* J = 24 */
(PID.TID 0000.0001)                 4.712123544873745E+04,      /* J = 25 */
(PID.TID 0000.0001)                 4.750448467975499E+04,      /* J = 26 */
(PID.TID 0000.0001)                 4.788391567392174E+04,      /* J = 27 */
(PID.TID 0000.0001)                 4.825944271092693E+04,      /* J = 28 */
(PID.TID 0000.0001)                 4.863098220111143E+04,      /* J = 29 */
(PID.TID 0000.0001)                 4.899845499569884E+04       /* J = 30 */
(PID.TID 0000.0001)     ;
(PID.TID 0000.0001) dxG =  /* dxG(:,1,:,1) ( units: m ) */
(PID.TID 0000.0001)                 2.052711702021451E+04,      /* I =  1 */
(PID.TID 0000.0001)                 2.051953983526162E+04,      /* I =  2 */
(PID.TID 0000.0001)                 2.051251425926268E+04,      /* I =  3 */
(PID.TID 0000.0001)                 2.050606148013825E+04,      /* I =  4 */
(PID.TID 0000.0001)                 2.050020059906299E+04,      /* I =  5 */
(PID.TID 0000.0001)                 2.049494867086169E+04,      /* I =  6 */
(PID.TID 0000.0001)                 2.049032075633103E+04,      /* I =  7 */
(PID.TID 0000.0001)                 2.048632995314923E+04,      /* I =  8 */
(PID.TID 0000.0001)                 2.048298743895549E+04,      /* I =  9 */
(PID.TID 0000.0001)                 2.048030251694177E+04,      /* I = 10 */
(PID.TID 0000.0001)                 2.047828270203973E+04,      /* I = 11 */
(PID.TID 0000.0001)                 2.047693414389448E+04,      /* I = 12 */
(PID.TID 0000.0001)     2 @  2.047624433858785E+04,             /* I = 13: 14 */
(PID.TID 0000.0001)                 2.047693414389443E+04,      /* I = 15 */
(PID.TID 0000.0001)                 2.047828270203978E+04,      /* I = 16 */
(PID.TID 0000.0001)                 2.048030251694177E+04,      /* I = 17 */
(PID.TID 0000.0001)                 2.048298743895548E+04,      /* I = 18 */
(PID.TID 0000.0001)                 2.048632995314927E+04,      /* I = 19 */
(PID.TID 0000.0001)                 2.049032075633093E+04,      /* I = 20 */
(PID.TID 0000.0001)                 2.049494867086174E+04,      /* I = 21 */
(PID.TID 0000.0001)                 2.050020059906297E+04,      /* I = 22 */
(PID.TID 0000.0001)                 2.050606148013830E+04,      /* I = 23 */
(PID.TID 0000.0001)                 2.051251425926268E+04,      /* I = 24 */
(PID.TID 0000.0001)                 2.051953983526163E+04,      /* I = 25 */
(PID.TID 0000.0001)                 2.052711702021443E+04,      /* I = 26 */
(PID.TID 0000.0001)                 2.053522248594683E+04,      /* I = 27 */
(PID.TID 0000.0001)                 2.054383070727552E+04,      /* I = 28 */
(PID.TID 0000.0001)                 2.055291390664790E+04,      /* I = 29 */
(PID.TID 0000.0001)                 2.056244198352907E+04       /* I = 30 */
(PID.TID 0000.0001)     ;
(PID.TID 0000.0001) dxG =  /* dxG(1,:,1,:) ( units: m ) */
(PID.TID 0000.0001)                 2.052711702021451E+04,      /* J =  1 */
(PID.TID 0000.0001)                 2.089954736357391E+04,      /* J =  2 */
(PID.TID 0000.0001)                 2.128641124518697E+04,      /* J =  3 */
(PID.TID 0000.0001)                 2.168771062037700E+04,      /* J =  4 */
(PID.TID 0000.0001)                 2.210344484655194E+04,      /* J =  5 */
(PID.TID 0000.0001)                 2.253361185972884E+04,      /* J =  6 */
(PID.TID 0000.0001)                 2.297820925105574E+04,      /* J =  7 */
(PID.TID 0000.0001)                 2.343723524028478E+04,      /* J =  8 */
(PID.TID 0000.0001)                 2.391068954427550E+04,      /* J =  9 */
(PID.TID 0000.0001)                 2.439857414125275E+04,      /* J = 10 */
(PID.TID 0000.0001)                 2.490089393241153E+04,      /* J = 11 */
(PID.TID 0000.0001)                 2.541765730414359E+04,      /* J = 12 */
(PID.TID 0000.0001)                 2.594887659459613E+04,      /* J = 13 */
(PID.TID 0000.0001)                 2.649456846940333E+04,      /* J = 14 */
(PID.TID 0000.0001)                 2.705475421181358E+04,      /* J = 15 */
(PID.TID 0000.0001)                 2.762945993231310E+04,      /* J = 16 */
(PID.TID 0000.0001)                 2.821871670385097E+04,      /* J = 17 */
(PID.TID 0000.0001)                 2.882256062780631E+04,      /* J = 18 */
(PID.TID 0000.0001)                 2.944103283669238E+04,      /* J = 19 */
(PID.TID 0000.0001)                 3.007417943861200E+04,      /* J = 20 */
(PID.TID 0000.0001)                 3.072205140902393E+04,      /* J = 21 */
(PID.TID 0000.0001)                 3.138470443467240E+04,      /* J = 22 */
(PID.TID 0000.0001)                 3.206219871470027E+04,      /* J = 23 */
(PID.TID 0000.0001)                 3.275459872326910E+04,      /* J = 24 */
(PID.TID 0000.0001)                 3.346197293831744E+04,      /* J = 25 */
(PID.TID 0000.0001)                 3.418439354048331E+04,      /* J = 26 */
(PID.TID 0000.0001)                 3.492193608585089E+04,      /* J = 27 */
(PID.TID 0000.0001)                 3.567467915738818E+04,      /* J = 28 */
(PID.TID 0000.0001)                 3.644270400216877E+04,      /* J = 29 */
(PID.TID 0000.0001)                 3.722609417427087E+04       /* J = 30 */
(PID.TID 0000.0001)     ;
(PID.TID 0000.0001) dyG =  /* dyG(:,1,:,1) ( units: m ) */
(PID.TID 0000.0001)                 3.696936823759973E+04,      /* I =  1 */
(PID.TID 0000.0001)                 3.704398547852144E+04,      /* I =  2 */
(PID.TID 0000.0001)                 3.711263318385338E+04,      /* I =  3 */
(PID.TID 0000.0001)                 3.717531082528212E+04,      /* I =  4 */
(PID.TID 0000.0001)                 3.723201816961422E+04,      /* I =  5 */
(PID.TID 0000.0001)                 3.728275520872145E+04,      /* I =  6 */
(PID.TID 0000.0001)                 3.732752209699158E+04,      /* I =  7 */
(PID.TID 0000.0001)                 3.736631909640826E+04,      /* I =  8 */
(PID.TID 0000.0001)                 3.739914652852553E+04,      /* I =  9 */
(PID.TID 0000.0001)                 3.742600473350589E+04,      /* I = 10 */
(PID.TID 0000.0001)                 3.744689403567852E+04,      /* I = 11 */
(PID.TID 0000.0001)                 3.746181471567877E+04,      /* I = 12 */
(PID.TID 0000.0001)                 3.747076698884368E+04,      /* I = 13 */
(PID.TID 0000.0001)                 3.747376174977726E+04,      /* I = 14 */
(PID.TID 0000.0001)                 3.747076698884368E+04,      /* I = 15 */
(PID.TID 0000.0001)                 3.746181471567877E+04,      /* I = 16 */
(PID.TID 0000.0001)                 3.744689403567852E+04,      /* I = 17 */
(PID.TID 0000.0001)                 3.742600473350589E+04,      /* I = 18 */
(PID.TID 0000.0001)                 3.739914652852552E+04,      /* I = 19 */
(PID.TID 0000.0001)                 3.736631909640826E+04,      /* I = 20 */
(PID.TID 0000.0001)                 3.732752209699157E+04,      /* I = 21 */
(PID.TID 0000.0001)                 3.728275520872146E+04,      /* I = 22 */
(PID.TID 0000.0001)                 3.723201816961422E+04,      /* I = 23 */
(PID.TID 0000.0001)                 3.717531082528211E+04,      /* I = 24 */
(PID.TID 0000.0001)                 3.711263318385338E+04,      /* I = 25 */
(PID.TID 0000.0001)                 3.704398547852145E+04,      /* I = 26 */
(PID.TID 0000.0001)                 3.696936823759972E+04,      /* I = 27 */
(PID.TID 0000.0001)                 3.688878236278851E+04,      /* I = 28 */
(PID.TID 0000.0001)                 3.680222921581766E+04,      /* I = 29 */
(PID.TID 0000.0001)                 3.670971071402137E+04       /* I = 30 */
(PID.TID 0000.0001)     ;
(PID.TID 0000.0001) dyG =  /* dyG(1,:,1,:) ( units: m ) */
(PID.TID 0000.0001)                 3.696936823759973E+04,      /* J =  1 */
(PID.TID 0000.0001)                 3.741746190559281E+04,      /* J =  2 */
(PID.TID 0000.0001)                 3.786390067184393E+04,      /* J =  3 */
(PID.TID 0000.0001)                 3.830858172733455E+04,      /* J =  4 */
(PID.TID 0000.0001)                 3.875140319955796E+04,      /* J =  5 */
(PID.TID 0000.0001)                 3.919226424948571E+04,      /* J =  6 */
(PID.TID 0000.0001)                 3.963106512715793E+04,      /* J =  7 */
(PID.TID 0000.0001)                 4.006770719102380E+04,      /* J =  8 */
(PID.TID 0000.0001)                 4.050209290047463E+04,      /* J =  9 */
(PID.TID 0000.0001)                 4.093412578484027E+04,      /* J = 10 */
(PID.TID 0000.0001)                 4.136371039407872E+04,      /* J = 11 */
(PID.TID 0000.0001)                 4.179075223673176E+04,      /* J = 12 */
(PID.TID 0000.0001)                 4.221515770920290E+04,      /* J = 13 */
(PID.TID 0000.0001)                 4.263683401805614E+04,      /* J = 14 */
(PID.TID 0000.0001)                 4.305568910412182E+04,      /* J = 15 */
(PID.TID 0000.0001)                 4.347163156363047E+04,      /* J = 16 */
(PID.TID 0000.0001)                 4.388457057225752E+04,      /* J = 17 */
(PID.TID 0000.0001)                 4.429441581934092E+04,      /* J = 18 */
(PID.TID 0000.0001)                 4.470107744374240E+04,      /* J = 19 */
(PID.TID 0000.0001)                 4.510446597891348E+04,      /* J = 20 */
(PID.TID 0000.0001)                 4.550449230395439E+04,      /* J = 21 */
(PID.TID 0000.0001)                 4.590106761654920E+04,      /* J = 22 */
(PID.TID 0000.0001)                 4.629410339849156E+04,      /* J = 23 */
(PID.TID 0000.0001)                 4.668351141269982E+04,      /* J = 24 */
(PID.TID 0000.0001)                 4.706920371856177E+04,      /* J = 25 */
(PID.TID 0000.0001)                 4.745109271730031E+04,      /* J = 26 */
(PID.TID 0000.0001)                 4.782909128417812E+04,      /* J = 27 */
(PID.TID 0000.0001)                 4.820311314005602E+04,      /* J = 28 */
(PID.TID 0000.0001)                 4.857307420014453E+04,      /* J = 29 */
(PID.TID 0000.0001)                 4.893889490827491E+04       /* J = 30 */
(PID.TID 0000.0001)     ;
(PID.TID 0000.0001) dxC =  /* dxC(:,1,:,1) ( units: m ) */
(PID.TID 0000.0001)                 2.071567651695695E+04,      /* I =  1 */
(PID.TID 0000.0001)                 2.070751892245589E+04,      /* I =  2 */
(PID.TID 0000.0001)                 2.069992855779408E+04,      /* I =  3 */
(PID.TID 0000.0001)                 2.069292717562287E+04,      /* I =  4 */
(PID.TID 0000.0001)                 2.068653446229046E+04,      /* I =  5 */
(PID.TID 0000.0001)                 2.068076808552306E+04,      /* I =  6 */
(PID.TID 0000.0001)                 2.067564373903614E+04,      /* I =  7 */
(PID.TID 0000.0001)                 2.067117518190149E+04,      /* I =  8 */
(PID.TID 0000.0001)                 2.066737427558298E+04,      /* I =  9 */
(PID.TID 0000.0001)                 2.066425102685107E+04,      /* I = 10 */
(PID.TID 0000.0001)                 2.066181364132844E+04,      /* I = 11 */
(PID.TID 0000.0001)                 2.066006869803818E+04,      /* I = 12 */
(PID.TID 0000.0001)                 2.065902266229015E+04,      /* I = 13 */
(PID.TID 0000.0001)                 2.065863826775786E+04,      /* I = 14 */
(PID.TID 0000.0001)                 2.065902266229016E+04,      /* I = 15 */
(PID.TID 0000.0001)                 2.066006869803813E+04,      /* I = 16 */
(PID.TID 0000.0001)                 2.066181364132850E+04,      /* I = 17 */
(PID.TID 0000.0001)                 2.066425102685108E+04,      /* I = 18 */
(PID.TID 0000.0001)                 2.066737427558298E+04,      /* I = 19 */
(PID.TID 0000.0001)                 2.067117518190149E+04,      /* I = 20 */
(PID.TID 0000.0001)                 2.067564373903615E+04,      /* I = 21 */
(PID.TID 0000.0001)                 2.068076808552304E+04,      /* I = 22 */
(PID.TID 0000.0001)                 2.068653446229045E+04,      /* I = 23 */
(PID.TID 0000.0001)                 2.069292717562287E+04,      /* I = 24 */
(PID.TID 0000.0001)                 2.069992855779413E+04,      /* I = 25 */
(PID.TID 0000.0001)                 2.070751892245584E+04,      /* I = 26 */
(PID.TID 0000.0001)                 2.071567651695691E+04,      /* I = 27 */
(PID.TID 0000.0001)                 2.072437747324421E+04,      /* I = 28 */
(PID.TID 0000.0001)                 2.073359574551806E+04,      /* I = 29 */
(PID.TID 0000.0001)                 2.074330305575613E+04       /* I = 30 */
(PID.TID 0000.0001)     ;
(PID.TID 0000.0001) dxC =  /* dxC(1,:,1,:) ( units: m ) */
(PID.TID 0000.0001)                 2.071567651695695E+04,      /* J =  1 */
(PID.TID 0000.0001)                 2.109563672137949E+04,      /* J =  2 */
(PID.TID 0000.0001)                 2.149002149497106E+04,      /* J =  3 */
(PID.TID 0000.0001)                 2.189882927482529E+04,      /* J =  4 */
(PID.TID 0000.0001)                 2.232205646389843E+04,      /* J =  5 */
(PID.TID 0000.0001)                 2.275969855854128E+04,      /* J =  6 */
(PID.TID 0000.0001)                 2.321175117362029E+04,      /* J =  7 */
(PID.TID 0000.0001)                 2.367821096276529E+04,      /* J =  8 */
(PID.TID 0000.0001)                 2.415907643347346E+04,      /* J =  9 */
(PID.TID 0000.0001)                 2.465434865814045E+04,      /* J = 10 */
(PID.TID 0000.0001)                 2.516403188365780E+04,      /* J = 11 */
(PID.TID 0000.0001)                 2.568813404310613E+04,      /* J = 12 */
(PID.TID 0000.0001)                 2.622666717399572E+04,      /* J = 13 */
(PID.TID 0000.0001)                 2.677964774799169E+04,      /* J = 14 */
(PID.TID 0000.0001)                 2.734709691757753E+04,      /* J = 15 */
(PID.TID 0000.0001)                 2.792904068517491E+04,      /* J = 16 */
(PID.TID 0000.0001)                 2.852551000032625E+04,      /* J = 17 */
(PID.TID 0000.0001)                 2.913654079081990E+04,      /* J = 18 */
(PID.TID 0000.0001)                 2.976217393306023E+04,      /* J = 19 */
(PID.TID 0000.0001)                 3.040245516699173E+04,      /* J = 20 */
(PID.TID 0000.0001)                 3.105743496108396E+04,      /* J = 21 */
(PID.TID 0000.0001)                 3.172716833208323E+04,      /* J = 22 */
(PID.TID 0000.0001)                 3.241171462422546E+04,      /* J = 23 */
(PID.TID 0000.0001)                 3.311113725244482E+04,      /* J = 24 */
(PID.TID 0000.0001)                 3.382550341391024E+04,      /* J = 25 */
(PID.TID 0000.0001)                 3.455488377140061E+04,      /* J = 26 */
(PID.TID 0000.0001)                 3.529935211332738E+04,      /* J = 27 */
(PID.TID 0000.0001)                 3.605898499520765E+04,      /* J = 28 */
(PID.TID 0000.0001)                 3.683386137397906E+04,      /* J = 29 */
(PID.TID 0000.0001)                 3.762406228407349E+04       /* J = 30 */
(PID.TID 0000.0001)     ;
(PID.TID 0000.0001) dyC =  /* dyC(:,1,:,1) ( units: m ) */
(PID.TID 0000.0001)                 3.678277710845771E+04,      /* I =  1 */
(PID.TID 0000.0001)                 3.685438685866048E+04,      /* I =  2 */
(PID.TID 0000.0001)                 3.692002588020908E+04,      /* I =  3 */
(PID.TID 0000.0001)                 3.697969453541307E+04,      /* I =  4 */
(PID.TID 0000.0001)                 3.703339337607873E+04,      /* I =  5 */
(PID.TID 0000.0001)                 3.708112307814123E+04,      /* I =  6 */
(PID.TID 0000.0001)                 3.712288438364359E+04,      /* I =  7 */
(PID.TID 0000.0001)                 3.715867804995441E+04,      /* I =  8 */
(PID.TID 0000.0001)                 3.718850480589901E+04,      /* I =  9 */
(PID.TID 0000.0001)                 3.721236531452968E+04,      /* I = 10 */
(PID.TID 0000.0001)                 3.723026014246432E+04,      /* I = 11 */
(PID.TID 0000.0001)                 3.724218973548726E+04,      /* I = 12 */
(PID.TID 0000.0001)     2 @  3.724815440020872E+04,             /* I = 13: 14 */
(PID.TID 0000.0001)                 3.724218973548726E+04,      /* I = 15 */
(PID.TID 0000.0001)                 3.723026014246432E+04,      /* I = 16 */
(PID.TID 0000.0001)                 3.721236531452968E+04,      /* I = 17 */
(PID.TID 0000.0001)                 3.718850480589901E+04,      /* I = 18 */
(PID.TID 0000.0001)                 3.715867804995440E+04,      /* I = 19 */
(PID.TID 0000.0001)                 3.712288438364359E+04,      /* I = 20 */
(PID.TID 0000.0001)                 3.708112307814122E+04,      /* I = 21 */
(PID.TID 0000.0001)                 3.703339337607873E+04,      /* I = 22 */
(PID.TID 0000.0001)                 3.697969453541307E+04,      /* I = 23 */
(PID.TID 0000.0001)                 3.692002588020908E+04,      /* I = 24 */
(PID.TID 0000.0001)                 3.685438685866047E+04,      /* I = 25 */
(PID.TID 0000.0001)                 3.678277710845772E+04,      /* I = 26 */
(PID.TID 0000.0001)                 3.670519653011381E+04,      /* I = 27 */
(PID.TID 0000.0001)                 3.662164536844059E+04,      /* I = 28 */
(PID.TID 0000.0001)                 3.653212430257830E+04,      /* I = 29 */
(PID.TID 0000.0001)                 3.643663454523116E+04       /* I = 30 */
(PID.TID 0000.0001)     ;
(PID.TID 0000.0001) dyC =  /* dyC(1,:,1,:) ( units: m ) */
(PID.TID 0000.0001)                 3.678277710845771E+04,      /* J =  1 */
(PID.TID 0000.0001)                 3.723168694115569E+04,      /* J =  2 */
(PID.TID 0000.0001)                 3.767901897410101E+04,      /* J =  3 */
(PID.TID 0000.0001)                 3.812467364657602E+04,      /* J =  4 */
(PID.TID 0000.0001)                 3.856855210935249E+04,      /* J =  5 */
(PID.TID 0000.0001)                 3.901055633269680E+04,      /* J =  6 */
(PID.TID 0000.0001)                 3.945058917911859E+04,      /* J =  7 */
(PID.TID 0000.0001)                 3.988855443472220E+04,      /* J =  8 */
(PID.TID 0000.0001)                 4.032435681898361E+04,      /* J =  9 */
(PID.TID 0000.0001)                 4.075790196435841E+04,      /* J = 10 */
(PID.TID 0000.0001)                 4.118909638222960E+04,      /* J = 11 */
(PID.TID 0000.0001)                 4.161784741043697E+04,      /* J = 12 */
(PID.TID 0000.0001)                 4.204406315499045E+04,      /* J = 13 */
(PID.TID 0000.0001)                 4.246765242091182E+04,      /* J = 14 */
(PID.TID 0000.0001)                 4.288852464034393E+04,      /* J = 15 */
(PID.TID 0000.0001)                 4.330658981118225E+04,      /* J = 16 */
(PID.TID 0000.0001)                 4.372175841431943E+04,      /* J = 17 */
(PID.TID 0000.0001)                 4.413394136293020E+04,      /* J = 18 */
(PID.TID 0000.0001)                 4.454304993440304E+04,      /* J = 19 */
(PID.TID 0000.0001)                 4.494899572325061E+04,      /* J = 20 */
(PID.TID 0000.0001)                 4.535169059286820E+04,      /* J = 21 */
(PID.TID 0000.0001)                 4.575104664412256E+04,      /* J = 22 */
(PID.TID 0000.0001)                 4.614697618947234E+04,      /* J = 23 */
(PID.TID 0000.0001)                 4.653939173844085E+04,      /* J = 24 */
(PID.TID 0000.0001)                 4.692820600744408E+04,      /* J = 25 */
(PID.TID 0000.0001)                 4.731333194957835E+04,      /* J = 26 */
(PID.TID 0000.0001)                 4.769468283927006E+04,      /* J = 27 */
(PID.TID 0000.0001)                 4.807217249390641E+04,      /* J = 28 */
(PID.TID 0000.0001)                 4.844571593362943E+04,      /* J = 29 */
(PID.TID 0000.0001)                 4.881523285497380E+04       /* J = 30 */
(PID.TID 0000.0001)     ;
(PID.TID 0000.0001) dxV =  /* dxV(:,1,:,1) ( units: m ) */
(PID.TID 0000.0001)                 2.053110526075532E+04,      /* I =  1 */
(PID.TID 0000.0001)                 2.052326088418283E+04,      /* I =  2 */
(PID.TID 0000.0001)                 2.051595672244828E+04,      /* I =  3 */
(PID.TID 0000.0001)                 2.050921502797681E+04,      /* I =  4 */
(PID.TID 0000.0001)                 2.050305593886370E+04,      /* I =  5 */
(PID.TID 0000.0001)                 2.049749752783181E+04,      /* I =  6 */
(PID.TID 0000.0001)                 2.049255584793284E+04,      /* I =  7 */
(PID.TID 0000.0001)                 2.048824497292525E+04,      /* I =  8 */
(PID.TID 0000.0001)                 2.048457703515834E+04,      /* I =  9 */
(PID.TID 0000.0001)                 2.048156226915133E+04,      /* I = 10 */
(PID.TID 0000.0001)                 2.047920906551970E+04,      /* I = 11 */
(PID.TID 0000.0001)                 2.047752414469434E+04,      /* I = 12 */
(PID.TID 0000.0001)                 2.047651405696554E+04,      /* I = 13 */
(PID.TID 0000.0001)                 2.047614194664622E+04,      /* I = 14 */
(PID.TID 0000.0001)                 2.047651405696559E+04,      /* I = 15 */
(PID.TID 0000.0001)                 2.047752414469430E+04,      /* I = 16 */
(PID.TID 0000.0001)                 2.047920906551971E+04,      /* I = 17 */
(PID.TID 0000.0001)                 2.048156226915138E+04,      /* I = 18 */
(PID.TID 0000.0001)                 2.048457703515829E+04,      /* I = 19 */
(PID.TID 0000.0001)                 2.048824497292535E+04,      /* I = 20 */
(PID.TID 0000.0001)                 2.049255584793274E+04,      /* I = 21 */
(PID.TID 0000.0001)                 2.049749752783187E+04,      /* I = 22 */
(PID.TID 0000.0001)                 2.050305593886373E+04,      /* I = 23 */
(PID.TID 0000.0001)                 2.050921502797675E+04,      /* I = 24 */
(PID.TID 0000.0001)                 2.051595672244826E+04,      /* I = 25 */
(PID.TID 0000.0001)                 2.052326088418290E+04,      /* I = 26 */
(PID.TID 0000.0001)                 2.053110526075532E+04,      /* I = 27 */
(PID.TID 0000.0001)                 2.053946543494557E+04,      /* I = 28 */
(PID.TID 0000.0001)                 2.054831476098181E+04,      /* I = 29 */
(PID.TID 0000.0001)                 2.055762430839241E+04       /* I = 30 */
(PID.TID 0000.0001)     ;
(PID.TID 0000.0001) dxV =  /* dxV(1,:,1,:) ( units: m ) */
(PID.TID 0000.0001)                 2.053110526075532E+04,      /* J =  1 */
(PID.TID 0000.0001)                 2.090385356266093E+04,      /* J =  2 */
(PID.TID 0000.0001)                 2.129102607314009E+04,      /* J =  3 */
(PID.TID 0000.0001)                 2.169262269996662E+04,      /* J =  4 */
(PID.TID 0000.0001)                 2.210864071595607E+04,      /* J =  5 */
(PID.TID 0000.0001)                 2.253907593617405E+04,      /* J =  6 */
(PID.TID 0000.0001)                 2.298392379458377E+04,      /* J =  7 */
(PID.TID 0000.0001)                 2.344318031700113E+04,      /* J =  8 */
(PID.TID 0000.0001)                 2.391684298864163E+04,      /* J =  9 */
(PID.TID 0000.0001)                 2.440491151699962E+04,      /* J = 10 */
(PID.TID 0000.0001)                 2.490738849171163E+04,      /* J = 11 */
(PID.TID 0000.0001)                 2.542427994477456E+04,      /* J = 12 */
(PID.TID 0000.0001)                 2.595559581485789E+04,      /* J = 13 */
(PID.TID 0000.0001)                 2.650135032062733E+04,      /* J = 14 */
(PID.TID 0000.0001)                 2.706156224833991E+04,      /* J = 15 */
(PID.TID 0000.0001)                 2.763625515890197E+04,      /* J = 16 */
(PID.TID 0000.0001)                 2.822545752042790E+04,      /* J = 17 */
(PID.TID 0000.0001)                 2.882920277162976E+04,      /* J = 18 */
(PID.TID 0000.0001)                 2.944752932187136E+04,      /* J = 19 */
(PID.TID 0000.0001)                 3.008048049319959E+04,      /* J = 20 */
(PID.TID 0000.0001)                 3.072810440966728E+04,      /* J = 21 */
(PID.TID 0000.0001)                 3.139045383903842E+04,      /* J = 22 */
(PID.TID 0000.0001)                 3.206758599174654E+04,      /* J = 23 */
(PID.TID 0000.0001)                 3.275956228156967E+04,      /* J = 24 */
(PID.TID 0000.0001)                 3.346644805244220E+04,      /* J = 25 */
(PID.TID 0000.0001)                 3.418831227550044E+04,      /* J = 26 */
(PID.TID 0000.0001)                 3.492522722017510E+04,      /* J = 27 */
(PID.TID 0000.0001)                 3.567726810399632E+04,      /* J = 28 */
(PID.TID 0000.0001)                 3.644451272859776E+04,      /* J = 29 */
(PID.TID 0000.0001)                 3.722704112152557E+04       /* J = 30 */
(PID.TID 0000.0001)     ;
(PID.TID 0000.0001) dyU =  /* dyU(:,1,:,1) ( units: m ) */
(PID.TID 0000.0001)                 3.674473316658630E+04,      /* I =  1 */
(PID.TID 0000.0001)                 3.681932833792822E+04,      /* I =  2 */
(PID.TID 0000.0001)                 3.688795269313092E+04,      /* I =  3 */
(PID.TID 0000.0001)                 3.695060647275718E+04,      /* I =  4 */
(PID.TID 0000.0001)                 3.700729014250917E+04,      /* I =  5 */
(PID.TID 0000.0001)                 3.705800432398131E+04,      /* I =  6 */
(PID.TID 0000.0001)                 3.710274973294064E+04,      /* I =  7 */
(PID.TID 0000.0001)                 3.714152712500728E+04,      /* I =  8 */
(PID.TID 0000.0001)                 3.717433724834998E+04,      /* I =  9 */
(PID.TID 0000.0001)                 3.720118080314009E+04,      /* I = 10 */
(PID.TID 0000.0001)                 3.722205840764935E+04,      /* I = 11 */
(PID.TID 0000.0001)                 3.723697057073888E+04,      /* I = 12 */
(PID.TID 0000.0001)                 3.724591767054543E+04,      /* I = 13 */
(PID.TID 0000.0001)                 3.724891083990022E+04,      /* I = 14 */
(PID.TID 0000.0001)                 3.724591767054542E+04,      /* I = 15 */
(PID.TID 0000.0001)                 3.723697057073889E+04,      /* I = 16 */
(PID.TID 0000.0001)                 3.722205840764935E+04,      /* I = 17 */
(PID.TID 0000.0001)                 3.720118080314008E+04,      /* I = 18 */
(PID.TID 0000.0001)                 3.717433724834998E+04,      /* I = 19 */
(PID.TID 0000.0001)                 3.714152712500728E+04,      /* I = 20 */
(PID.TID 0000.0001)                 3.710274973294063E+04,      /* I = 21 */
(PID.TID 0000.0001)                 3.705800432398131E+04,      /* I = 22 */
(PID.TID 0000.0001)                 3.700729014250917E+04,      /* I = 23 */
(PID.TID 0000.0001)                 3.695060647275716E+04,      /* I = 24 */
(PID.TID 0000.0001)                 3.688795269313094E+04,      /* I = 25 */
(PID.TID 0000.0001)                 3.681932833792821E+04,      /* I = 26 */
(PID.TID 0000.0001)                 3.674473316658630E+04,      /* I = 27 */
(PID.TID 0000.0001)                 3.666416724104654E+04,      /* I = 28 */
(PID.TID 0000.0001)                 3.657763101146962E+04,      /* I = 29 */
(PID.TID 0000.0001)                 3.648512541079492E+04       /* I = 30 */
(PID.TID 0000.0001)     ;
(PID.TID 0000.0001) dyU =  /* dyU(1,:,1,:) ( units: m ) */
(PID.TID 0000.0001)                 3.674473316658630E+04,      /* J =  1 */
(PID.TID 0000.0001)                 3.719361547538896E+04,      /* J =  2 */
(PID.TID 0000.0001)                 3.764089459751266E+04,      /* J =  3 */
(PID.TID 0000.0001)                 3.808646730382765E+04,      /* J =  4 */
(PID.TID 0000.0001)                 3.853023123895088E+04,      /* J =  5 */
(PID.TID 0000.0001)                 3.897208503739593E+04,      /* J =  6 */
(PID.TID 0000.0001)                 3.941192840112046E+04,      /* J =  7 */
(PID.TID 0000.0001)                 3.984966213263487E+04,      /* J =  8 */
(PID.TID 0000.0001)                 4.028518814419441E+04,      /* J =  9 */
(PID.TID 0000.0001)                 4.071840943468107E+04,      /* J = 10 */
(PID.TID 0000.0001)                 4.114923005120406E+04,      /* J = 11 */
(PID.TID 0000.0001)                 4.157755503103340E+04,      /* J = 12 */
(PID.TID 0000.0001)                 4.200329033666767E+04,      /* J = 13 */
(PID.TID 0000.0001)                 4.242634277960793E+04,      /* J = 14 */
(PID.TID 0000.0001)                 4.284661994092684E+04,      /* J = 15 */
(PID.TID 0000.0001)                 4.326403010205203E+04,      /* J = 16 */
(PID.TID 0000.0001)                 4.367848215462093E+04,      /* J = 17 */
(PID.TID 0000.0001)                 4.408988554208750E+04,      /* J = 18 */
(PID.TID 0000.0001)                 4.449815018464295E+04,      /* J = 19 */
(PID.TID 0000.0001)                 4.490318642518511E+04,      /* J = 20 */
(PID.TID 0000.0001)                 4.530490497491705E+04,      /* J = 21 */
(PID.TID 0000.0001)                 4.570321687598708E+04,      /* J = 22 */
(PID.TID 0000.0001)                 4.609803347024994E+04,      /* J = 23 */
(PID.TID 0000.0001)                 4.648926637992392E+04,      /* J = 24 */
(PID.TID 0000.0001)                 4.687682751321772E+04,      /* J = 25 */
(PID.TID 0000.0001)                 4.726062909013533E+04,      /* J = 26 */
(PID.TID 0000.0001)                 4.764058372401170E+04,      /* J = 27 */
(PID.TID 0000.0001)                 4.801660464021451E+04,      /* J = 28 */
(PID.TID 0000.0001)                 4.838860633247659E+04,      /* J = 29 */
(PID.TID 0000.0001)                 4.875650803021456E+04       /* J = 30 */
(PID.TID 0000.0001)     ;
(PID.TID 0000.0001) rA  =  /* rA (:,1,:,1) ( units: m^2 ) */
(PID.TID 0000.0001)                 7.665113621396177E+08,      /* I =  1 */
(PID.TID 0000.0001)                 7.677029697239892E+08,      /* I =  2 */
(PID.TID 0000.0001)                 7.687913877455838E+08,      /* I =  3 */
(PID.TID 0000.0001)                 7.697775979751738E+08,      /* I =  4 */
(PID.TID 0000.0001)                 7.706625466485583E+08,      /* I =  5 */
(PID.TID 0000.0001)                 7.714470546020026E+08,      /* I =  6 */
(PID.TID 0000.0001)                 7.721318586456149E+08,      /* I =  7 */
(PID.TID 0000.0001)                 7.727176271684608E+08,      /* I =  8 */
(PID.TID 0000.0001)                 7.732049082776864E+08,      /* I =  9 */
(PID.TID 0000.0001)                 7.735941717305043E+08,      /* I = 10 */
(PID.TID 0000.0001)                 7.738858051500469E+08,      /* I = 11 */
(PID.TID 0000.0001)                 7.740801100790358E+08,      /* I = 12 */
(PID.TID 0000.0001)                 7.741766386182301E+08,      /* I = 13 */
(PID.TID 0000.0001)                 7.741766369784317E+08,      /* I = 14 */
(PID.TID 0000.0001)                 7.740801094843833E+08,      /* I = 15 */
(PID.TID 0000.0001)                 7.738858062852919E+08,      /* I = 16 */
(PID.TID 0000.0001)                 7.735941726495122E+08,      /* I = 17 */
(PID.TID 0000.0001)                 7.732049061873938E+08,      /* I = 18 */
(PID.TID 0000.0001)                 7.727176277450933E+08,      /* I = 19 */
(PID.TID 0000.0001)                 7.721318658895597E+08,      /* I = 20 */
(PID.TID 0000.0001)                 7.714470531424019E+08,      /* I = 21 */
(PID.TID 0000.0001)                 7.706625470810328E+08,      /* I = 22 */
(PID.TID 0000.0001)                 7.697776024260553E+08,      /* I = 23 */
(PID.TID 0000.0001)                 7.687913844659867E+08,      /* I = 24 */
(PID.TID 0000.0001)                 7.677029712196296E+08,      /* I = 25 */
(PID.TID 0000.0001)                 7.665113646083255E+08,      /* I = 26 */
(PID.TID 0000.0001)                 7.652154604170089E+08,      /* I = 27 */
(PID.TID 0000.0001)                 7.638140926048064E+08,      /* I = 28 */
(PID.TID 0000.0001)                 7.623059927966076E+08,      /* I = 29 */
(PID.TID 0000.0001)                 7.606898330980235E+08       /* I = 30 */
(PID.TID 0000.0001)     ;
(PID.TID 0000.0001) rA  =  /* rA (1,:,1,:) ( units: m^2 ) */
(PID.TID 0000.0001)                 7.665113621396177E+08,      /* J =  1 */
(PID.TID 0000.0001)                 7.900134359449342E+08,      /* J =  2 */
(PID.TID 0000.0001)                 8.143679155417176E+08,      /* J =  3 */
(PID.TID 0000.0001)                 8.395900636155584E+08,      /* J =  4 */
(PID.TID 0000.0001)                 8.656947784023314E+08,      /* J =  5 */
(PID.TID 0000.0001)                 8.926966010402582E+08,      /* J =  6 */
(PID.TID 0000.0001)                 9.206097737377057E+08,      /* J =  7 */
(PID.TID 0000.0001)                 9.494482582794807E+08,      /* J =  8 */
(PID.TID 0000.0001)                 9.792257431806778E+08,      /* J =  9 */
(PID.TID 0000.0001)                 1.009955679131553E+09,      /* J = 10 */
(PID.TID 0000.0001)                 1.041651296044221E+09,      /* J = 11 */
(PID.TID 0000.0001)                 1.074325614369065E+09,      /* J = 12 */
(PID.TID 0000.0001)                 1.107991467925779E+09,      /* J = 13 */
(PID.TID 0000.0001)                 1.142661498173082E+09,      /* J = 14 */
(PID.TID 0000.0001)                 1.178348167164929E+09,      /* J = 15 */
(PID.TID 0000.0001)                 1.215063762235644E+09,      /* J = 16 */
(PID.TID 0000.0001)                 1.252820414073754E+09,      /* J = 17 */
(PID.TID 0000.0001)                 1.291630043617734E+09,      /* J = 18 */
(PID.TID 0000.0001)                 1.331504416619858E+09,      /* J = 19 */
(PID.TID 0000.0001)                 1.372455096362339E+09,      /* J = 20 */
(PID.TID 0000.0001)                 1.414493440828222E+09,      /* J = 21 */
(PID.TID 0000.0001)                 1.457630613639386E+09,      /* J = 22 */
(PID.TID 0000.0001)                 1.501877517761831E+09,      /* J = 23 */
(PID.TID 0000.0001)                 1.547244834049951E+09,      /* J = 24 */
(PID.TID 0000.0001)                 1.593742963439136E+09,      /* J = 25 */
(PID.TID 0000.0001)                 1.641382020566774E+09,      /* J = 26 */
(PID.TID 0000.0001)                 1.690171807481416E+09,      /* J = 27 */
(PID.TID 0000.0001)                 1.740121820832662E+09,      /* J = 28 */
(PID.TID 0000.0001)                 1.791241246411172E+09,      /* J = 29 */
(PID.TID 0000.0001)                 1.843539059771026E+09       /* J = 30 */
(PID.TID 0000.0001)     ;
(PID.TID 0000.0001) rAw =  /* rAw(:,1,:,1) ( units: m^2 ) */
(PID.TID 0000.0001)                 7.658765213139513E+08,      /* I =  1 */
(PID.TID 0000.0001)                 7.671201328724998E+08,      /* I =  2 */
(PID.TID 0000.0001)                 7.682600121490355E+08,      /* I =  3 */
(PID.TID 0000.0001)                 7.692972101823016E+08,      /* I =  4 */
(PID.TID 0000.0001)                 7.702326756407654E+08,      /* I =  5 */
(PID.TID 0000.0001)                 7.710673044850856E+08,      /* I =  6 */
(PID.TID 0000.0001)                 7.718018764844863E+08,      /* I =  7 */
(PID.TID 0000.0001)                 7.724370884091616E+08,      /* I =  8 */
(PID.TID 0000.0001)                 7.729735468223690E+08,      /* I =  9 */
(PID.TID 0000.0001)                 7.734117650170708E+08,      /* I = 10 */
(PID.TID 0000.0001)                 7.737521718456172E+08,      /* I = 11 */
(PID.TID 0000.0001)                 7.739951054308500E+08,      /* I = 12 */
(PID.TID 0000.0001)                 7.741408739107244E+08,      /* I = 13 */
(PID.TID 0000.0001)                 7.741880730050739E+08,      /* I = 14 */
(PID.TID 0000.0001)                 7.741408710636016E+08,      /* I = 15 */
(PID.TID 0000.0001)                 7.739951071427275E+08,      /* I = 16 */
(PID.TID 0000.0001)                 7.737521718095777E+08,      /* I = 17 */
(PID.TID 0000.0001)                 7.734117675938969E+08,      /* I = 18 */
(PID.TID 0000.0001)                 7.729735457051437E+08,      /* I = 19 */
(PID.TID 0000.0001)                 7.724370889497546E+08,      /* I = 20 */
(PID.TID 0000.0001)                 7.718018793856685E+08,      /* I = 21 */
(PID.TID 0000.0001)                 7.710673053320146E+08,      /* I = 22 */
(PID.TID 0000.0001)                 7.702326816053071E+08,      /* I = 23 */
(PID.TID 0000.0001)                 7.692972065242898E+08,      /* I = 24 */
(PID.TID 0000.0001)                 7.682600115363635E+08,      /* I = 25 */
(PID.TID 0000.0001)                 7.671201363863536E+08,      /* I = 26 */
(PID.TID 0000.0001)                 7.658765213499908E+08,      /* I = 27 */
(PID.TID 0000.0001)                 7.645280345158333E+08,      /* I = 28 */
(PID.TID 0000.0001)                 7.630734673343852E+08,      /* I = 29 */
(PID.TID 0000.0001)                 7.615115062009304E+08       /* I = 30 */
(PID.TID 0000.0001)     ;
(PID.TID 0000.0001) rAw =  /* rAw(1,:,1,:) ( units: m^2 ) */
(PID.TID 0000.0001)                 7.658765213139513E+08,      /* J =  1 */
(PID.TID 0000.0001)                 7.893768970448780E+08,      /* J =  2 */
(PID.TID 0000.0001)                 8.137283914516071E+08,      /* J =  3 */
(PID.TID 0000.0001)                 8.389460603348250E+08,      /* J =  4 */
(PID.TID 0000.0001)                 8.650445848102766E+08,      /* J =  5 */
(PID.TID 0000.0001)                 8.920382782103341E+08,      /* J =  6 */
(PID.TID 0000.0001)                 9.199411445401106E+08,      /* J =  7 */
(PID.TID 0000.0001)                 9.487668893433769E+08,      /* J =  8 */
(PID.TID 0000.0001)                 9.785289545527842E+08,      /* J =  9 */
(PID.TID 0000.0001)                 1.009240515336406E+09,      /* J = 10 */
(PID.TID 0000.0001)                 1.040914522930714E+09,      /* J = 11 */
(PID.TID 0000.0001)                 1.073563715488477E+09,      /* J = 12 */
(PID.TID 0000.0001)                 1.107200612276400E+09,      /* J = 13 */
(PID.TID 0000.0001)                 1.141837554111466E+09,      /* J = 14 */
(PID.TID 0000.0001)                 1.177486672294872E+09,      /* J = 15 */
(PID.TID 0000.0001)                 1.214159933192917E+09,      /* J = 16 */
(PID.TID 0000.0001)                 1.251869095602249E+09,      /* J = 17 */
(PID.TID 0000.0001)                 1.290625742284441E+09,      /* J = 18 */
(PID.TID 0000.0001)                 1.330441258846839E+09,      /* J = 19 */
(PID.TID 0000.0001)                 1.371326820624166E+09,      /* J = 20 */
(PID.TID 0000.0001)                 1.413293399742275E+09,      /* J = 21 */
(PID.TID 0000.0001)                 1.456351737475827E+09,      /* J = 22 */
(PID.TID 0000.0001)                 1.500512320083793E+09,      /* J = 23 */
(PID.TID 0000.0001)                 1.545785394792978E+09,      /* J = 24 */
(PID.TID 0000.0001)                 1.592180902277974E+09,      /* J = 25 */
(PID.TID 0000.0001)                 1.639708504465653E+09,      /* J = 26 */
(PID.TID 0000.0001)                 1.688377519501836E+09,      /* J = 27 */
(PID.TID 0000.0001)                 1.738196956421325E+09,      /* J = 28 */
(PID.TID 0000.0001)                 1.789175499722981E+09,      /* J = 29 */
(PID.TID 0000.0001)                 1.841321602441802E+09       /* J = 30 */
(PID.TID 0000.0001)     ;
(PID.TID 0000.0001) rAs =  /* rAs(:,1,:,1) ( units: m^2 ) */
(PID.TID 0000.0001)                 7.550751050606852E+08,      /* I =  1 */
(PID.TID 0000.0001)                 7.562658447772087E+08,      /* I =  2 */
(PID.TID 0000.0001)                 7.573533970032284E+08,      /* I =  3 */
(PID.TID 0000.0001)                 7.583387692957978E+08,      /* I =  4 */
(PID.TID 0000.0001)                 7.592229121974397E+08,      /* I =  5 */
(PID.TID 0000.0001)                 7.600066705467438E+08,      /* I =  6 */
(PID.TID 0000.0001)                 7.606907923080522E+08,      /* I =  7 */
(PID.TID 0000.0001)                 7.612759532224941E+08,      /* I =  8 */
(PID.TID 0000.0001)                 7.617627129118443E+08,      /* I =  9 */
(PID.TID 0000.0001)                 7.621515550445726E+08,      /* I = 10 */
(PID.TID 0000.0001)                 7.624428588466020E+08,      /* I = 11 */
(PID.TID 0000.0001)                 7.626369483673384E+08,      /* I = 12 */
(PID.TID 0000.0001)                 7.627333738515058E+08,      /* I = 13 */
(PID.TID 0000.0001)                 7.627333728604188E+08,      /* I = 14 */
(PID.TID 0000.0001)                 7.626369508901051E+08,      /* I = 15 */
(PID.TID 0000.0001)                 7.624428655319341E+08,      /* I = 16 */
(PID.TID 0000.0001)                 7.621515526659639E+08,      /* I = 17 */
(PID.TID 0000.0001)                 7.617627197953936E+08,      /* I = 18 */
(PID.TID 0000.0001)                 7.612759510961621E+08,      /* I = 19 */
(PID.TID 0000.0001)                 7.606907969030919E+08,      /* I = 20 */
(PID.TID 0000.0001)                 7.600066694295187E+08,      /* I = 21 */
(PID.TID 0000.0001)                 7.592229103594238E+08,      /* I = 22 */
(PID.TID 0000.0001)                 7.583387684488690E+08,      /* I = 23 */
(PID.TID 0000.0001)                 7.573533915792797E+08,      /* I = 24 */
(PID.TID 0000.0001)                 7.562658465071062E+08,      /* I = 25 */
(PID.TID 0000.0001)                 7.550751079979067E+08,      /* I = 26 */
(PID.TID 0000.0001)                 7.537800585200102E+08,      /* I = 27 */
(PID.TID 0000.0001)                 7.523795064624999E+08,      /* I = 28 */
(PID.TID 0000.0001)                 7.508721675027735E+08,      /* I = 29 */
(PID.TID 0000.0001)                 7.492566800675046E+08       /* I = 30 */
(PID.TID 0000.0001)     ;
(PID.TID 0000.0001) rAs =  /* rAs(1,:,1,:) ( units: m^2 ) */
(PID.TID 0000.0001)                 7.550751050606852E+08,      /* J =  1 */
(PID.TID 0000.0001)                 7.781568160584769E+08,      /* J =  2 */
(PID.TID 0000.0001)                 8.020831616625657E+08,      /* J =  3 */
(PID.TID 0000.0001)                 8.268695937660589E+08,      /* J =  4 */
(PID.TID 0000.0001)                 8.525311818286231E+08,      /* J =  5 */
(PID.TID 0000.0001)                 8.790826547724357E+08,      /* J =  6 */
(PID.TID 0000.0001)                 9.065383887828039E+08,      /* J =  7 */
(PID.TID 0000.0001)                 9.349124897125442E+08,      /* J =  8 */
(PID.TID 0000.0001)                 9.642187819277472E+08,      /* J =  9 */
(PID.TID 0000.0001)                 9.944708240750725E+08,      /* J = 10 */
(PID.TID 0000.0001)                 1.025681954725808E+09,      /* J = 11 */
(PID.TID 0000.0001)                 1.057865313008499E+09,      /* J = 12 */
(PID.TID 0000.0001)                 1.091033805921100E+09,      /* J = 13 */
(PID.TID 0000.0001)                 1.125200178247652E+09,      /* J = 14 */
(PID.TID 0000.0001)                 1.160376979600140E+09,      /* J = 15 */
(PID.TID 0000.0001)                 1.196576586510721E+09,      /* J = 16 */
(PID.TID 0000.0001)                 1.233811208089928E+09,      /* J = 17 */
(PID.TID 0000.0001)                 1.272092866313053E+09,      /* J = 18 */
(PID.TID 0000.0001)                 1.311433405822894E+09,      /* J = 19 */
(PID.TID 0000.0001)                 1.351844507714875E+09,      /* J = 20 */
(PID.TID 0000.0001)                 1.393337606051485E+09,      /* J = 21 */
(PID.TID 0000.0001)                 1.435923987908001E+09,      /* J = 22 */
(PID.TID 0000.0001)                 1.479614675036705E+09,      /* J = 23 */
(PID.TID 0000.0001)                 1.524420466465598E+09,      /* J = 24 */
(PID.TID 0000.0001)                 1.570351910729954E+09,      /* J = 25 */
(PID.TID 0000.0001)                 1.617419255741331E+09,      /* J = 26 */
(PID.TID 0000.0001)                 1.665632470339211E+09,      /* J = 27 */
(PID.TID 0000.0001)                 1.715001205152071E+09,      /* J = 28 */
(PID.TID 0000.0001)                 1.765534790867491E+09,      /* J = 29 */
(PID.TID 0000.0001)                 1.817242347954489E+09       /* J = 30 */
(PID.TID 0000.0001)     ;
(PID.TID 0000.0001) globalArea = /* Integrated horizontal Area (m^2) */
(PID.TID 0000.0001)                 3.580138611494435E+14
(PID.TID 0000.0001)     ;
(PID.TID 0000.0001) hasWetCSCorners = /* Domain contains CS corners (True/False) */
(PID.TID 0000.0001)                   F
(PID.TID 0000.0001)     ;
(PID.TID 0000.0001) // =======================================================
(PID.TID 0000.0001) // End of Model config. summary
(PID.TID 0000.0001) // =======================================================
(PID.TID 0000.0001) 
(PID.TID 0000.0001) == Packages configuration : Check & print summary ==
(PID.TID 0000.0001) 
(PID.TID 0000.0001) GGL90_CHECK: #define ALLOW_GGL90
(PID.TID 0000.0001) GGL90_CHECK: Some form of convection has been enabled
(PID.TID 0000.0001) GMREDI_CHECK: #define GMREDI
(PID.TID 0000.0001) GM_AdvForm =     /* if FALSE => use SkewFlux Form */
(PID.TID 0000.0001)                   T
(PID.TID 0000.0001)     ;
(PID.TID 0000.0001) GM_InMomAsStress = /* if TRUE => apply as Eddy Stress */
(PID.TID 0000.0001)                   F
(PID.TID 0000.0001)     ;
(PID.TID 0000.0001) GM_AdvSeparate = /* Calc Bolus & Euler Adv. separately */
(PID.TID 0000.0001)                   F
(PID.TID 0000.0001)     ;
(PID.TID 0000.0001) GM_ExtraDiag =   /* Tensor Extra Diag (line 1&2) non 0 */
(PID.TID 0000.0001)                   T
(PID.TID 0000.0001)     ;
(PID.TID 0000.0001) GM_isopycK =    /* Background Isopyc. Diffusivity [m^2/s] */
(PID.TID 0000.0001)                 1.000000000000000E+03
(PID.TID 0000.0001)     ;
(PID.TID 0000.0001) GM_skewflx*K =  /* Background GM_SkewFlx Diffusivity [m^2/s] */
(PID.TID 0000.0001)                 0.000000000000000E+00
(PID.TID 0000.0001)     ;
(PID.TID 0000.0001) GM_advec*K =    /* Backg. GM-Advec(=Bolus) Diffusivity [m^2/s]*/
(PID.TID 0000.0001)                 1.000000000000000E+03
(PID.TID 0000.0001)     ;
(PID.TID 0000.0001) GM_Kmin_horiz = /* Minimum Horizontal Diffusivity [m^2/s] */
(PID.TID 0000.0001)                 1.000000000000000E+02
(PID.TID 0000.0001)     ;
(PID.TID 0000.0001) GM_Visbeck_alpha = /* Visbeck alpha coeff. [-] */
(PID.TID 0000.0001)                 0.000000000000000E+00
(PID.TID 0000.0001)     ;
(PID.TID 0000.0001) GM_Small_Number =  /* epsilon used in slope calc */
(PID.TID 0000.0001)                 9.999999999999999E-21
(PID.TID 0000.0001)     ;
(PID.TID 0000.0001) GM_slopeSqCutoff = /* Slope^2 cut-off value */
(PID.TID 0000.0001)                 1.000000000000000E+08
(PID.TID 0000.0001)     ;
(PID.TID 0000.0001) GM_taper_scheme =  /* Type of Tapering/Clipping scheme */
(PID.TID 0000.0001)               'stableGmAdjTap                          '
(PID.TID 0000.0001)     ;
(PID.TID 0000.0001) GM_maxSlope =  /* Maximum Slope (Tapering/Clipping) */
(PID.TID 0000.0001)                 4.000000000000000E-03
(PID.TID 0000.0001)     ;
(PID.TID 0000.0001) GM_facTrL2dz = /* Minimum Trans.Layer Thick. (factor of dz) */
(PID.TID 0000.0001)                 1.000000000000000E+00
(PID.TID 0000.0001)     ;
(PID.TID 0000.0001) GM_facTrL2ML = /* Max.Trans.Layer Thick. (factor of MxL Depth)*/
(PID.TID 0000.0001)                 5.000000000000000E+00
(PID.TID 0000.0001)     ;
(PID.TID 0000.0001) GM_maxTransLay = /* Maximum Transition Layer Thickness [m] */
(PID.TID 0000.0001)                 5.000000000000000E+02
(PID.TID 0000.0001)     ;
(PID.TID 0000.0001) GM_UseBVP = /* if TRUE => use bvp a la Ferrari et al. (2010) */
(PID.TID 0000.0001)                   F
(PID.TID 0000.0001)     ;
(PID.TID 0000.0001) GM_BVP_ModeNumber = /* Vertical mode number for BVP wave speed */
(PID.TID 0000.0001)                       1
(PID.TID 0000.0001)     ;
(PID.TID 0000.0001) GM_BVP_cMin = /* Minimum wave speed for BVP [m/s] */
(PID.TID 0000.0001)                 1.000000000000000E-01
(PID.TID 0000.0001)     ;
(PID.TID 0000.0001) GM_useSubMeso = /* if TRUE => use Sub-Meso param. (B.Fox-Kemper) */
(PID.TID 0000.0001)                   F
(PID.TID 0000.0001)     ;
(PID.TID 0000.0001) subMeso_Ceff = /* efficiency coeff. of Mixed-Layer Eddies [-] */
(PID.TID 0000.0001)                 7.000000000000001E-02
(PID.TID 0000.0001)     ;
(PID.TID 0000.0001) subMeso_invTau = /* inverse of Sub-Meso mixing time-scale [/s] */
(PID.TID 0000.0001)                 2.000000000000000E-06
(PID.TID 0000.0001)     ;
(PID.TID 0000.0001) subMeso_LfMin = /* minimum length-scale "Lf" [m] */
(PID.TID 0000.0001)                 1.000000000000000E+03
(PID.TID 0000.0001)     ;
(PID.TID 0000.0001) subMeso_Lmax = /* maximum grid-scale length [m] */
(PID.TID 0000.0001)                 1.100000000000000E+05
(PID.TID 0000.0001)     ;
(PID.TID 0000.0001) EXF_CHECK: #define ALLOW_EXF
(PID.TID 0000.0001) SEAICE_CHECK: #define ALLOW_SEAICE
(PID.TID 0000.0001) SALT_PLUME_CHECK: #define SALT_PLUME
(PID.TID 0000.0001) GAD_CHECK: #define ALLOW_GENERIC_ADVDIFF
(PID.TID 0000.0001) // =======================================================
(PID.TID 0000.0001) // Check Model config. (CONFIG_CHECK):
(PID.TID 0000.0001) // CONFIG_CHECK : Normal End
(PID.TID 0000.0001) // =======================================================
(PID.TID 0000.0001) 
(PID.TID 0000.0001)  nRecords = 403 ; filePrec =  64 ; fileIter =     26280
(PID.TID 0000.0001)     nDims =   2 , dims:
(PID.TID 0000.0001)    1:  90   1  90
(PID.TID 0000.0001)    2:1170   11170
(PID.TID 0000.0001)     nFlds =  11 , nFl3D =   8 , fields:
(PID.TID 0000.0001)  >Uvel    < >Vvel    < >Theta   < >Salt    < >GuNm1   < >GuNm2   < >GvNm1   < >GvNm2   < >EtaN    < >dEtaHdt < >EtaH    <
(PID.TID 0000.0001) missingVal=  1.00000000000000E+00 ; nTimRec =   1 , timeList:
(PID.TID 0000.0001)   9.460800000000E+07
(PID.TID 0000.0001) READ_MFLDS_3D_RL: read field: "Uvel    ", #   1 in fldList, rec=   1
(PID.TID 0000.0001) READ_MFLDS_3D_RL: read field: "Vvel    ", #   2 in fldList, rec=   2
(PID.TID 0000.0001) READ_MFLDS_3D_RL: read field: "Theta   ", #   3 in fldList, rec=   3
(PID.TID 0000.0001) READ_MFLDS_3D_RL: read field: "Salt    ", #   4 in fldList, rec=   4
(PID.TID 0000.0001) READ_MFLDS_3D_RL: read field: "GuNm1   ", #   5 in fldList, rec=   5
(PID.TID 0000.0001) READ_MFLDS_3D_RL: read field: "GvNm1   ", #   7 in fldList, rec=   7
(PID.TID 0000.0001) READ_MFLDS_3D_RL: read field: "EtaN    ", #   9 in fldList, rec= 401
(PID.TID 0000.0001) READ_MFLDS_3D_RL: read field: "dEtaHdt ", #  10 in fldList, rec= 402
(PID.TID 0000.0001) READ_MFLDS_3D_RL: read field: "EtaH    ", #  11 in fldList, rec= 403
(PID.TID 0000.0001) READ_MFLDS_CHECK: - normal end ; reset MFLDS file-name: pickup.0000000001
(PID.TID 0000.0001)  nRecords =   6 ; filePrec =  64 ; fileIter =     17532
(PID.TID 0000.0001)     nDims =   2 , dims:
(PID.TID 0000.0001)    1:  90   1  90
(PID.TID 0000.0001)    2:1170   11170
(PID.TID 0000.0001)     nFlds =   6 , nFl3D =   0 , fields:
(PID.TID 0000.0001)  >siTICE  < >siAREA  < >siHEFF  < >siHSNOW < >siUICE  < >siVICE  <
(PID.TID 0000.0001) missingVal=  1.00000000000000E+00 ; nTimRec =   1 , timeList:
(PID.TID 0000.0001)   6.311520000000E+07
(PID.TID 0000.0001) READ_MFLDS_LEV_RL: read field: "siTICE  ", #   1 in fldList, rec=   1
(PID.TID 0000.0001) READ_MFLDS_3D_RL: read field: "siAREA  ", #   2 in fldList, rec=   2
(PID.TID 0000.0001) READ_MFLDS_3D_RL: read field: "siHEFF  ", #   3 in fldList, rec=   3
(PID.TID 0000.0001) READ_MFLDS_3D_RL: read field: "siHSNOW ", #   4 in fldList, rec=   4
(PID.TID 0000.0001) READ_MFLDS_3D_RL: read field: "siUICE  ", #   5 in fldList, rec=   5
(PID.TID 0000.0001) READ_MFLDS_3D_RL: read field: "siVICE  ", #   6 in fldList, rec=   6
(PID.TID 0000.0001) READ_MFLDS_CHECK: - normal end ; reset MFLDS file-name: pickup_seaice.0000000001
(PID.TID 0000.0001) // =======================================================
(PID.TID 0000.0001) // Model current state
(PID.TID 0000.0001) // =======================================================
(PID.TID 0000.0001) 
(PID.TID 0000.0001) SOLVE_FOR_PRESSURE: putPmEinXvector =    F
 cg2d: Sum(rhs),rhsMax =   3.03919922811158E+00  4.16926290445951E-01
(PID.TID 0000.0001)      cg2d_init_res =   4.23627009639716E-01
(PID.TID 0000.0001)      cg2d_iters(min,last) =      -1      90
(PID.TID 0000.0001)      cg2d_last_res =   6.80669853749857E-06
(PID.TID 0000.0001) // =======================================================
(PID.TID 0000.0001) // Begin MONITOR dynamic field statistics
(PID.TID 0000.0001) // =======================================================
(PID.TID 0000.0001) %MON time_tsnumber                =                     2
(PID.TID 0000.0001) %MON time_secondsf                =   7.2000000000000E+03
(PID.TID 0000.0001) %MON dynstat_eta_max              =   1.2148838626139E+00
(PID.TID 0000.0001) %MON dynstat_eta_min              =  -4.6609666302114E+00
(PID.TID 0000.0001) %MON dynstat_eta_mean             =  -1.5382332502953E-03
(PID.TID 0000.0001) %MON dynstat_eta_sd               =   7.4416379987298E-01
(PID.TID 0000.0001) %MON dynstat_eta_del2             =   2.8566603981353E-04
(PID.TID 0000.0001) %MON dynstat_uvel_max             =   1.1498069099199E+00
(PID.TID 0000.0001) %MON dynstat_uvel_min             =  -7.4232477869947E-01
(PID.TID 0000.0001) %MON dynstat_uvel_mean            =   1.5000711148690E-03
(PID.TID 0000.0001) %MON dynstat_uvel_sd              =   2.1975655279141E-02
(PID.TID 0000.0001) %MON dynstat_uvel_del2            =   1.9009520171985E-05
(PID.TID 0000.0001) %MON dynstat_vvel_max             =   9.1654360451653E-01
(PID.TID 0000.0001) %MON dynstat_vvel_min             =  -1.0586560273682E+00
(PID.TID 0000.0001) %MON dynstat_vvel_mean            =   1.1291269433511E-03
(PID.TID 0000.0001) %MON dynstat_vvel_sd              =   2.4049494840843E-02
(PID.TID 0000.0001) %MON dynstat_vvel_del2            =   2.0406683244990E-05
(PID.TID 0000.0001) %MON dynstat_wvel_max             =   1.2743104014340E-03
(PID.TID 0000.0001) %MON dynstat_wvel_min             =  -1.3274585106868E-03
(PID.TID 0000.0001) %MON dynstat_wvel_mean            =   1.5899790981677E-09
(PID.TID 0000.0001) %MON dynstat_wvel_sd              =   3.1623590075728E-05
(PID.TID 0000.0001) %MON dynstat_wvel_del2            =   4.2187591658042E-08
(PID.TID 0000.0001) %MON dynstat_theta_max            =   3.2656412516532E+01
(PID.TID 0000.0001) %MON dynstat_theta_min            =  -2.0421225546724E+00
(PID.TID 0000.0001) %MON dynstat_theta_mean           =   3.5905900778000E+00
(PID.TID 0000.0001) %MON dynstat_theta_sd             =   4.4366395130652E+00
(PID.TID 0000.0001) %MON dynstat_theta_del2           =   1.0900733333910E-04
(PID.TID 0000.0001) %MON dynstat_salt_max             =   4.0711528389010E+01
(PID.TID 0000.0001) %MON dynstat_salt_min             =   1.7459558494453E+01
(PID.TID 0000.0001) %MON dynstat_salt_mean            =   3.4725688851417E+01
(PID.TID 0000.0001) %MON dynstat_salt_sd              =   3.7887893036775E-01
(PID.TID 0000.0001) %MON dynstat_salt_del2            =   2.7225416238886E-05
(PID.TID 0000.0001) %MON dynstat_sst_max              =   3.2648706557200E+01
(PID.TID 0000.0001) %MON dynstat_sst_min              =  -1.9609567456445E+00
(PID.TID 0000.0001) %MON dynstat_sst_mean             =   1.8511641110350E+01
(PID.TID 0000.0001) %MON dynstat_sst_sd               =   1.0085029692348E+01
(PID.TID 0000.0001) %MON dynstat_sst_del2             =   8.7857630850618E-04
(PID.TID 0000.0001) %MON dynstat_sss_max              =   3.9713654840469E+01
(PID.TID 0000.0001) %MON dynstat_sss_min              =   1.7459558494453E+01
(PID.TID 0000.0001) %MON dynstat_sss_mean             =   3.4720060702558E+01
(PID.TID 0000.0001) %MON dynstat_sss_sd               =   1.2190204850475E+00
(PID.TID 0000.0001) %MON dynstat_sss_del2             =   3.9598989074108E-04
(PID.TID 0000.0001) %MON forcing_qnet_max             =   7.7576558676074E+02
(PID.TID 0000.0001) %MON forcing_qnet_min             =  -6.3426505757265E+02
(PID.TID 0000.0001) %MON forcing_qnet_mean            =  -1.2495452224116E+00
(PID.TID 0000.0001) %MON forcing_qnet_sd              =   2.1611428849223E+02
(PID.TID 0000.0001) %MON forcing_qnet_del2            =   1.6060283758959E-01
(PID.TID 0000.0001) %MON forcing_qsw_max              =   2.4166958056377E+01
(PID.TID 0000.0001) %MON forcing_qsw_min              =  -7.1119123214824E+02
(PID.TID 0000.0001) %MON forcing_qsw_mean             =  -1.7563644296134E+02
(PID.TID 0000.0001) %MON forcing_qsw_sd               =   1.8661162313407E+02
(PID.TID 0000.0001) %MON forcing_qsw_del2             =   7.5387373227253E-02
(PID.TID 0000.0001) %MON forcing_empmr_max            =   2.2639358351499E-03
(PID.TID 0000.0001) %MON forcing_empmr_min            =  -2.0571335994852E-03
(PID.TID 0000.0001) %MON forcing_empmr_mean           =   5.1240787867659E-06
(PID.TID 0000.0001) %MON forcing_empmr_sd             =   1.0730912514405E-04
(PID.TID 0000.0001) %MON forcing_empmr_del2           =   4.8396214935941E-07
(PID.TID 0000.0001) %MON forcing_fu_max               =   1.5899234214420E+00
(PID.TID 0000.0001) %MON forcing_fu_min               =  -2.0541702684172E+00
(PID.TID 0000.0001) %MON forcing_fu_mean              =   1.3892841589410E-02
(PID.TID 0000.0001) %MON forcing_fu_sd                =   1.1475602570558E-01
(PID.TID 0000.0001) %MON forcing_fu_del2              =   1.1232450073828E-04
(PID.TID 0000.0001) %MON forcing_fv_max               =   1.4427051938013E+00
(PID.TID 0000.0001) %MON forcing_fv_min               =  -7.8501012512880E-01
(PID.TID 0000.0001) %MON forcing_fv_mean              =   4.4554679235172E-03
(PID.TID 0000.0001) %MON forcing_fv_sd                =   1.1776749817711E-01
(PID.TID 0000.0001) %MON forcing_fv_del2              =   1.0507078932011E-04
(PID.TID 0000.0001) %MON trAdv_CFL_u_max              =   7.4070132225855E-02
(PID.TID 0000.0001) %MON trAdv_CFL_v_max              =   9.9873645430447E-02
(PID.TID 0000.0001) %MON trAdv_CFL_w_max              =   3.6094110541217E-01
(PID.TID 0000.0001) %MON advcfl_uvel_max              =   7.0919441194366E-02
(PID.TID 0000.0001) %MON advcfl_vvel_max              =   9.6629305338210E-02
(PID.TID 0000.0001) %MON advcfl_wvel_max              =   3.6162992481321E-01
(PID.TID 0000.0001) %MON advcfl_W_hf_max              =   3.6309254381466E-01
(PID.TID 0000.0001) %MON pe_b_mean                    =   4.3866659854864E-04
(PID.TID 0000.0001) %MON ke_max                       =   6.1033796505466E-01
(PID.TID 0000.0001) %MON ke_mean                      =   5.1345906518868E-04
(PID.TID 0000.0001) %MON ke_vol                       =   1.3349973326485E+18
(PID.TID 0000.0001) %MON vort_r_min                   =  -3.5222831394099E-05
(PID.TID 0000.0001) %MON vort_r_max                   =   3.8569703973654E-05
(PID.TID 0000.0001) %MON vort_a_mean                  =  -1.9727864647440E-05
(PID.TID 0000.0001) %MON vort_a_sd                    =   7.4543460705281E-05
(PID.TID 0000.0001) %MON vort_p_mean                  =  -2.1760535714105E-05
(PID.TID 0000.0001) %MON vort_p_sd                    =   9.7239336978031E-05
(PID.TID 0000.0001) %MON surfExpan_theta_mean         =   2.3840742409547E-07
(PID.TID 0000.0001) %MON surfExpan_salt_mean          =   4.1842756733507E-08
(PID.TID 0000.0001) // =======================================================
(PID.TID 0000.0001) // End MONITOR dynamic field statistics
(PID.TID 0000.0001) // =======================================================
(PID.TID 0000.0001) // =======================================================
(PID.TID 0000.0001) // Begin MONITOR SEAICE statistics
(PID.TID 0000.0001) // =======================================================
(PID.TID 0000.0001) %MON seaice_tsnumber              =                     2
(PID.TID 0000.0001) %MON seaice_time_sec              =   7.2000000000000E+03
(PID.TID 0000.0001) %MON seaice_uice_max              =   4.0000000000000E-01
(PID.TID 0000.0001) %MON seaice_uice_min              =  -4.0000000000000E-01
(PID.TID 0000.0001) %MON seaice_uice_mean             =   1.5850496782776E-03
(PID.TID 0000.0001) %MON seaice_uice_sd               =   1.9314377905915E-01
(PID.TID 0000.0001) %MON seaice_uice_del2             =   2.5812141231332E-04
(PID.TID 0000.0001) %MON seaice_vice_max              =   4.0000000000000E-01
(PID.TID 0000.0001) %MON seaice_vice_min              =  -4.0000000000000E-01
(PID.TID 0000.0001) %MON seaice_vice_mean             =  -1.5069357267180E-02
(PID.TID 0000.0001) %MON seaice_vice_sd               =   2.0148298545916E-01
(PID.TID 0000.0001) %MON seaice_vice_del2             =   2.6470434897446E-04
(PID.TID 0000.0001) %MON seaice_area_max              =   9.5000000000000E-01
(PID.TID 0000.0001) %MON seaice_area_min              =   0.0000000000000E+00
(PID.TID 0000.0001) %MON seaice_area_mean             =   3.9465234471960E-02
(PID.TID 0000.0001) %MON seaice_area_sd               =   1.7965058545746E-01
(PID.TID 0000.0001) %MON seaice_area_del2             =   2.7457066662489E-04
(PID.TID 0000.0001) %MON seaice_heff_max              =   3.8221569365205E+00
(PID.TID 0000.0001) %MON seaice_heff_min              =   0.0000000000000E+00
(PID.TID 0000.0001) %MON seaice_heff_mean             =   5.3406798341789E-02
(PID.TID 0000.0001) %MON seaice_heff_sd               =   3.0462923780919E-01
(PID.TID 0000.0001) %MON seaice_heff_del2             =   2.9652956686383E-04
(PID.TID 0000.0001) %MON seaice_hsnow_max             =   7.9797870333063E-01
(PID.TID 0000.0001) %MON seaice_hsnow_min             =  -2.2410392169793E-05
(PID.TID 0000.0001) %MON seaice_hsnow_mean            =   5.2609494724957E-03
(PID.TID 0000.0001) %MON seaice_hsnow_sd              =   3.1461082889764E-02
(PID.TID 0000.0001) %MON seaice_hsnow_del2            =   5.5539354627962E-05
(PID.TID 0000.0001) // =======================================================
(PID.TID 0000.0001) // End MONITOR SEAICE statistics
(PID.TID 0000.0001) // =======================================================
(PID.TID 0000.0001) // =======================================================
(PID.TID 0000.0001) // Begin MONITOR EXF statistics
(PID.TID 0000.0001) // =======================================================
(PID.TID 0000.0001) %MON exf_tsnumber                 =                     2
(PID.TID 0000.0001) %MON exf_time_sec                 =   7.2000000000000E+03
(PID.TID 0000.0001) %MON exf_ustress_max              =   3.1753117653585E+00
(PID.TID 0000.0001) %MON exf_ustress_min              =  -1.6363924669642E+00
(PID.TID 0000.0001) %MON exf_ustress_mean             =   1.4190045040110E-02
(PID.TID 0000.0001) %MON exf_ustress_sd               =   1.1137769185964E-01
(PID.TID 0000.0001) %MON exf_ustress_del2             =   1.2102760129160E-04
(PID.TID 0000.0001) %MON exf_vstress_max              =   1.4258035541723E+00
(PID.TID 0000.0001) %MON exf_vstress_min              =  -7.2053247690201E-01
(PID.TID 0000.0001) %MON exf_vstress_mean             =   3.6627740939748E-03
(PID.TID 0000.0001) %MON exf_vstress_sd               =   1.1380292357644E-01
(PID.TID 0000.0001) %MON exf_vstress_del2             =   8.8647224929359E-05
(PID.TID 0000.0001) %MON exf_hflux_max                =   1.5097283322340E+03
(PID.TID 0000.0001) %MON exf_hflux_min                =  -7.5358529184963E+02
(PID.TID 0000.0001) %MON exf_hflux_mean               =   1.0669553596207E+01
(PID.TID 0000.0001) %MON exf_hflux_sd                 =   2.5569447143398E+02
(PID.TID 0000.0001) %MON exf_hflux_del2               =   4.2647138553608E-01
(PID.TID 0000.0001) %MON exf_sflux_max                =   2.0273908077951E-07
(PID.TID 0000.0001) %MON exf_sflux_min                =  -2.0647885556642E-06
(PID.TID 0000.0001) %MON exf_sflux_mean               =   5.7700359699841E-09
(PID.TID 0000.0001) %MON exf_sflux_sd                 =   8.6415298252608E-08
(PID.TID 0000.0001) %MON exf_sflux_del2               =   2.2817320271059E-10
(PID.TID 0000.0001) %MON exf_wspeed_max               =   2.9662384986877E+01
(PID.TID 0000.0001) %MON exf_wspeed_min               =   6.7645036304990E-02
(PID.TID 0000.0001) %MON exf_wspeed_mean              =   7.0288462095870E+00
(PID.TID 0000.0001) %MON exf_wspeed_sd                =   3.1724360963937E+00
(PID.TID 0000.0001) %MON exf_wspeed_del2              =   1.2264344465340E-02
(PID.TID 0000.0001) %MON exf_atemp_max                =   3.0422436180115E+02
(PID.TID 0000.0001) %MON exf_atemp_min                =   2.3401197662354E+02
(PID.TID 0000.0001) %MON exf_atemp_mean               =   2.8911249132396E+02
(PID.TID 0000.0001) %MON exf_atemp_sd                 =   1.2242985257906E+01
(PID.TID 0000.0001) %MON exf_atemp_del2               =   2.6311486023771E-02
(PID.TID 0000.0001) %MON exf_aqh_max                  =   2.2424321621656E-02
(PID.TID 0000.0001) %MON exf_aqh_min                  =   1.2350250108284E-04
(PID.TID 0000.0001) %MON exf_aqh_mean                 =   1.0952436145365E-02
(PID.TID 0000.0001) %MON exf_aqh_sd                   =   5.6504860891526E-03
(PID.TID 0000.0001) %MON exf_aqh_del2                 =   1.4762480394544E-05
(PID.TID 0000.0001) %MON exf_lwflux_max               =   2.2496976606516E+02
(PID.TID 0000.0001) %MON exf_lwflux_min               =  -2.2963441278687E+01
(PID.TID 0000.0001) %MON exf_lwflux_mean              =   4.8693227592477E+01
(PID.TID 0000.0001) %MON exf_lwflux_sd                =   2.9542526151890E+01
(PID.TID 0000.0001) %MON exf_lwflux_del2              =   9.9763599536297E-02
(PID.TID 0000.0001) %MON exf_evap_max                 =   2.2353157071720E-07
(PID.TID 0000.0001) %MON exf_evap_min                 =  -4.8884118104035E-08
(PID.TID 0000.0001) %MON exf_evap_mean                =   4.4865264107237E-08
(PID.TID 0000.0001) %MON exf_evap_sd                  =   2.9288563815528E-08
(PID.TID 0000.0001) %MON exf_evap_del2                =   7.2105896730426E-11
(PID.TID 0000.0001) %MON exf_precip_max               =   1.8901316731027E-06
(PID.TID 0000.0001) %MON exf_precip_min               =  -1.3830571502875E-08
(PID.TID 0000.0001) %MON exf_precip_mean              =   3.6049176197007E-08
(PID.TID 0000.0001) %MON exf_precip_sd                =   7.4903371004001E-08
(PID.TID 0000.0001) %MON exf_precip_del2              =   2.2432258024322E-10
(PID.TID 0000.0001) %MON exf_swflux_max               =   2.4350709681529E+01
(PID.TID 0000.0001) %MON exf_swflux_min               =  -7.9938077271205E+02
(PID.TID 0000.0001) %MON exf_swflux_mean              =  -1.8056336871363E+02
(PID.TID 0000.0001) %MON exf_swflux_sd                =   2.0894903533676E+02
(PID.TID 0000.0001) %MON exf_swflux_del2              =   3.6990574102611E-01
(PID.TID 0000.0001) %MON exf_swdown_max               =   8.6295539855957E+02
(PID.TID 0000.0001) %MON exf_swdown_min               =  -3.3355792999268E+01
(PID.TID 0000.0001) %MON exf_swdown_mean              =   1.9584190578757E+02
(PID.TID 0000.0001) %MON exf_swdown_sd                =   2.2604038131844E+02
(PID.TID 0000.0001) %MON exf_swdown_del2              =   4.0178838567039E-01
(PID.TID 0000.0001) %MON exf_lwdown_max               =   4.6155465189616E+02
(PID.TID 0000.0001) %MON exf_lwdown_min               =   7.4746526082357E+01
(PID.TID 0000.0001) %MON exf_lwdown_mean              =   3.6299650807199E+02
(PID.TID 0000.0001) %MON exf_lwdown_sd                =   6.6226932850194E+01
(PID.TID 0000.0001) %MON exf_lwdown_del2              =   4.8744581219562E-01
(PID.TID 0000.0001) %MON exf_runoff_max               =   2.0244639153310E-06
(PID.TID 0000.0001) %MON exf_runoff_min               =   0.0000000000000E+00
(PID.TID 0000.0001) %MON exf_runoff_mean              =   3.0460519402462E-09
(PID.TID 0000.0001) %MON exf_runoff_sd                =   2.3847779208041E-08
(PID.TID 0000.0001) %MON exf_runoff_del2              =   1.8083385233819E-11
(PID.TID 0000.0001) // =======================================================
(PID.TID 0000.0001) // End MONITOR EXF statistics
(PID.TID 0000.0001) // =======================================================
 SEAICE_LSR: Residual Initial ipass,Uice,Vice=    1  1.77599502E-01  1.96579275E-01
 SEAICE_LSR: Residual FrDrift U_fd,V_fd=  7.80130073E+01  5.72424021E+01
 SEAICE_LSR (ipass=   1) iters,dU,Resid=   132  1.20647218E-04  7.23855373E-04
 SEAICE_LSR (ipass=   1) iters,dV,Resid=   132  1.95431769E-04  1.42504441E-03
 SEAICE_LSR: Residual Initial ipass,Uice,Vice=    2  1.02921739E+00  1.26018365E+00
 SEAICE_LSR: Residual FrDrift U_fd,V_fd=  7.62185660E+01  5.66311415E+01
 SEAICE_LSR (ipass=   2) iters,dU,Resid=   116  6.94321776E-05  4.28913248E-04
 SEAICE_LSR (ipass=   2) iters,dV,Resid=   116  1.95508409E-04  1.16119706E-03
 cg2d: Sum(rhs),rhsMax =   3.07721356745902E+00  4.21349256775395E-01
 cg2d: Sum(rhs),rhsMax =   3.11829352031853E+00  4.25805465394007E-01
(PID.TID 0000.0001)      cg2d_init_res =   4.71688803320746E-01
(PID.TID 0000.0001)      cg2d_iters(min,last) =      -1      95
(PID.TID 0000.0001)      cg2d_last_res =   6.93680442162171E-06
(PID.TID 0000.0001) // =======================================================
(PID.TID 0000.0001) // Begin MONITOR dynamic field statistics
(PID.TID 0000.0001) // =======================================================
(PID.TID 0000.0001) %MON time_tsnumber                =                     4
(PID.TID 0000.0001) %MON time_secondsf                =   1.4400000000000E+04
(PID.TID 0000.0001) %MON dynstat_eta_max              =   1.3590195641784E+00
(PID.TID 0000.0001) %MON dynstat_eta_min              =  -4.6033603378823E+00
(PID.TID 0000.0001) %MON dynstat_eta_mean             =  -1.5782653314619E-03
(PID.TID 0000.0001) %MON dynstat_eta_sd               =   7.4432399246258E-01
(PID.TID 0000.0001) %MON dynstat_eta_del2             =   2.8271323678884E-04
(PID.TID 0000.0001) %MON dynstat_uvel_max             =   1.0449311119634E+00
(PID.TID 0000.0001) %MON dynstat_uvel_min             =  -7.1702452705955E-01
(PID.TID 0000.0001) %MON dynstat_uvel_mean            =   1.5233648188138E-03
(PID.TID 0000.0001) %MON dynstat_uvel_sd              =   2.1991273118512E-02
(PID.TID 0000.0001) %MON dynstat_uvel_del2            =   1.7600657945207E-05
(PID.TID 0000.0001) %MON dynstat_vvel_max             =   9.5542217840622E-01
(PID.TID 0000.0001) %MON dynstat_vvel_min             =  -9.4543263414509E-01
(PID.TID 0000.0001) %MON dynstat_vvel_mean            =   1.1422233959021E-03
(PID.TID 0000.0001) %MON dynstat_vvel_sd              =   2.4026862371818E-02
(PID.TID 0000.0001) %MON dynstat_vvel_del2            =   1.8909623617222E-05
(PID.TID 0000.0001) %MON dynstat_wvel_max             =   9.4299967343620E-04
(PID.TID 0000.0001) %MON dynstat_wvel_min             =  -1.1633753928728E-03
(PID.TID 0000.0001) %MON dynstat_wvel_mean            =   7.7586198106894E-10
(PID.TID 0000.0001) %MON dynstat_wvel_sd              =   3.0452677406558E-05
(PID.TID 0000.0001) %MON dynstat_wvel_del2            =   3.5830791760946E-08
(PID.TID 0000.0001) %MON dynstat_theta_max            =   3.2629380229839E+01
(PID.TID 0000.0001) %MON dynstat_theta_min            =  -2.0421216684371E+00
(PID.TID 0000.0001) %MON dynstat_theta_mean           =   3.5905923940244E+00
(PID.TID 0000.0001) %MON dynstat_theta_sd             =   4.4366055019777E+00
(PID.TID 0000.0001) %MON dynstat_theta_del2           =   1.0883819855413E-04
(PID.TID 0000.0001) %MON dynstat_salt_max             =   4.0711522971688E+01
(PID.TID 0000.0001) %MON dynstat_salt_min             =   1.7457204864318E+01
(PID.TID 0000.0001) %MON dynstat_salt_mean            =   3.4725689233150E+01
(PID.TID 0000.0001) %MON dynstat_salt_sd              =   3.7887785746191E-01
(PID.TID 0000.0001) %MON dynstat_salt_del2            =   2.7127741993535E-05
(PID.TID 0000.0001) %MON dynstat_sst_max              =   3.2629355989017E+01
(PID.TID 0000.0001) %MON dynstat_sst_min              =  -1.9610415457068E+00
(PID.TID 0000.0001) %MON dynstat_sst_mean             =   1.8511301019543E+01
(PID.TID 0000.0001) %MON dynstat_sst_sd               =   1.0083311735053E+01
(PID.TID 0000.0001) %MON dynstat_sst_del2             =   8.7963465327398E-04
(PID.TID 0000.0001) %MON dynstat_sss_max              =   3.9712989133214E+01
(PID.TID 0000.0001) %MON dynstat_sss_min              =   1.7457204864318E+01
(PID.TID 0000.0001) %MON dynstat_sss_mean             =   3.4720295906780E+01
(PID.TID 0000.0001) %MON dynstat_sss_sd               =   1.2190234722975E+00
(PID.TID 0000.0001) %MON dynstat_sss_del2             =   3.9564533468953E-04
(PID.TID 0000.0001) %MON forcing_qnet_max             =   8.3935619421494E+02
(PID.TID 0000.0001) %MON forcing_qnet_min             =  -8.7139990934776E+02
(PID.TID 0000.0001) %MON forcing_qnet_mean            =  -6.3713585961736E+00
(PID.TID 0000.0001) %MON forcing_qnet_sd              =   2.6093222131383E+02
(PID.TID 0000.0001) %MON forcing_qnet_del2            =   1.6969701639507E-01
(PID.TID 0000.0001) %MON forcing_qsw_max              =   2.8018363554778E+01
(PID.TID 0000.0001) %MON forcing_qsw_min              =  -9.1886703536836E+02
(PID.TID 0000.0001) %MON forcing_qsw_mean             =  -1.8197844901336E+02
(PID.TID 0000.0001) %MON forcing_qsw_sd               =   2.3843359436896E+02
(PID.TID 0000.0001) %MON forcing_qsw_del2             =   8.6438278257307E-02
(PID.TID 0000.0001) %MON forcing_empmr_max            =   2.2669303062283E-03
(PID.TID 0000.0001) %MON forcing_empmr_min            =  -2.1791787623101E-03
(PID.TID 0000.0001) %MON forcing_empmr_mean           =   5.9430014346018E-06
(PID.TID 0000.0001) %MON forcing_empmr_sd             =   1.1159227614592E-04
(PID.TID 0000.0001) %MON forcing_empmr_del2           =   5.0121832577023E-07
(PID.TID 0000.0001) %MON forcing_fu_max               =   1.9027013113269E+00
(PID.TID 0000.0001) %MON forcing_fu_min               =  -2.1165834706744E+00
(PID.TID 0000.0001) %MON forcing_fu_mean              =   1.4143786317822E-02
(PID.TID 0000.0001) %MON forcing_fu_sd                =   1.1525040178255E-01
(PID.TID 0000.0001) %MON forcing_fu_del2              =   1.1641385201075E-04
(PID.TID 0000.0001) %MON forcing_fv_max               =   1.5795160255941E+00
(PID.TID 0000.0001) %MON forcing_fv_min               =  -7.1027132969266E-01
(PID.TID 0000.0001) %MON forcing_fv_mean              =   4.9692605524714E-03
(PID.TID 0000.0001) %MON forcing_fv_sd                =   1.2194158870643E-01
(PID.TID 0000.0001) %MON forcing_fv_del2              =   1.1272600962912E-04
(PID.TID 0000.0001) %MON trAdv_CFL_u_max              =   8.3792101871394E-02
(PID.TID 0000.0001) %MON trAdv_CFL_v_max              =   8.8693939376882E-02
(PID.TID 0000.0001) %MON trAdv_CFL_w_max              =   3.1854614119488E-01
(PID.TID 0000.0001) %MON advcfl_uvel_max              =   7.7351815693005E-02
(PID.TID 0000.0001) %MON advcfl_vvel_max              =   8.8510217156466E-02
(PID.TID 0000.0001) %MON advcfl_wvel_max              =   3.2032141684218E-01
(PID.TID 0000.0001) %MON advcfl_W_hf_max              =   3.2161500108721E-01
(PID.TID 0000.0001) %MON pe_b_mean                    =   4.3847387822976E-04
(PID.TID 0000.0001) %MON ke_max                       =   4.9996679455483E-01
(PID.TID 0000.0001) %MON ke_mean                      =   5.1331364843604E-04
(PID.TID 0000.0001) %MON ke_vol                       =   1.3349973193422E+18
(PID.TID 0000.0001) %MON vort_r_min                   =  -3.1963056016245E-05
(PID.TID 0000.0001) %MON vort_r_max                   =   3.5105532911588E-05
(PID.TID 0000.0001) %MON vort_a_mean                  =  -1.9727864647440E-05
(PID.TID 0000.0001) %MON vort_a_sd                    =   7.4543417833934E-05
(PID.TID 0000.0001) %MON vort_p_mean                  =  -2.1760536008765E-05
(PID.TID 0000.0001) %MON vort_p_sd                    =   9.7239910772955E-05
(PID.TID 0000.0001) %MON surfExpan_theta_mean         =   2.3267242807184E-07
(PID.TID 0000.0001) %MON surfExpan_salt_mean          =   2.1766855488181E-08
(PID.TID 0000.0001) // =======================================================
(PID.TID 0000.0001) // End MONITOR dynamic field statistics
(PID.TID 0000.0001) // =======================================================
(PID.TID 0000.0001) // =======================================================
(PID.TID 0000.0001) // Begin MONITOR SEAICE statistics
(PID.TID 0000.0001) // =======================================================
(PID.TID 0000.0001) %MON seaice_tsnumber              =                     4
(PID.TID 0000.0001) %MON seaice_time_sec              =   1.4400000000000E+04
(PID.TID 0000.0001) %MON seaice_uice_max              =   4.0000000000000E-01
(PID.TID 0000.0001) %MON seaice_uice_min              =  -4.0000000000000E-01
(PID.TID 0000.0001) %MON seaice_uice_mean             =   4.0321860776689E-03
(PID.TID 0000.0001) %MON seaice_uice_sd               =   1.9297997213945E-01
(PID.TID 0000.0001) %MON seaice_uice_del2             =   2.2270048769784E-04
(PID.TID 0000.0001) %MON seaice_vice_max              =   4.0000000000000E-01
(PID.TID 0000.0001) %MON seaice_vice_min              =  -4.0000000000000E-01
(PID.TID 0000.0001) %MON seaice_vice_mean             =  -1.1566680347347E-02
(PID.TID 0000.0001) %MON seaice_vice_sd               =   2.0063365205638E-01
(PID.TID 0000.0001) %MON seaice_vice_del2             =   2.2770058780819E-04
(PID.TID 0000.0001) %MON seaice_area_max              =   9.5000000000000E-01
(PID.TID 0000.0001) %MON seaice_area_min              =   0.0000000000000E+00
(PID.TID 0000.0001) %MON seaice_area_mean             =   3.9379289191711E-02
(PID.TID 0000.0001) %MON seaice_area_sd               =   1.7952494891905E-01
(PID.TID 0000.0001) %MON seaice_area_del2             =   2.7187679377965E-04
(PID.TID 0000.0001) %MON seaice_heff_max              =   3.8228221543969E+00
(PID.TID 0000.0001) %MON seaice_heff_min              =   0.0000000000000E+00
(PID.TID 0000.0001) %MON seaice_heff_mean             =   5.3418101078418E-02
(PID.TID 0000.0001) %MON seaice_heff_sd               =   3.0472907932439E-01
(PID.TID 0000.0001) %MON seaice_heff_del2             =   2.9386165409574E-04
(PID.TID 0000.0001) %MON seaice_hsnow_max             =   8.3715291314177E-01
(PID.TID 0000.0001) %MON seaice_hsnow_min             =  -2.5494286810427E-05
(PID.TID 0000.0001) %MON seaice_hsnow_mean            =   5.2532961957051E-03
(PID.TID 0000.0001) %MON seaice_hsnow_sd              =   3.1459660938931E-02
(PID.TID 0000.0001) %MON seaice_hsnow_del2            =   5.4752797440614E-05
(PID.TID 0000.0001) // =======================================================
(PID.TID 0000.0001) // End MONITOR SEAICE statistics
(PID.TID 0000.0001) // =======================================================
(PID.TID 0000.0001) // =======================================================
(PID.TID 0000.0001) // Begin MONITOR EXF statistics
(PID.TID 0000.0001) // =======================================================
(PID.TID 0000.0001) %MON exf_tsnumber                 =                     4
(PID.TID 0000.0001) %MON exf_time_sec                 =   1.4400000000000E+04
(PID.TID 0000.0001) %MON exf_ustress_max              =   3.3380149379498E+00
(PID.TID 0000.0001) %MON exf_ustress_min              =  -1.7017335124293E+00
(PID.TID 0000.0001) %MON exf_ustress_mean             =   1.4027215049700E-02
(PID.TID 0000.0001) %MON exf_ustress_sd               =   1.0893692403832E-01
(PID.TID 0000.0001) %MON exf_ustress_del2             =   1.1804226782501E-04
(PID.TID 0000.0001) %MON exf_vstress_max              =   1.5628723496495E+00
(PID.TID 0000.0001) %MON exf_vstress_min              =  -6.2638629422709E-01
(PID.TID 0000.0001) %MON exf_vstress_mean             =   3.8739079306832E-03
(PID.TID 0000.0001) %MON exf_vstress_sd               =   1.1469991560154E-01
(PID.TID 0000.0001) %MON exf_vstress_del2             =   8.8335678242925E-05
(PID.TID 0000.0001) %MON exf_hflux_max                =   1.5354281891569E+03
(PID.TID 0000.0001) %MON exf_hflux_min                =  -7.4931636705157E+02
(PID.TID 0000.0001) %MON exf_hflux_mean               =   3.7917522712614E+00
(PID.TID 0000.0001) %MON exf_hflux_sd                 =   2.5486249726018E+02
(PID.TID 0000.0001) %MON exf_hflux_del2               =   4.2570488463199E-01
(PID.TID 0000.0001) %MON exf_sflux_max                =   2.0493156265798E-07
(PID.TID 0000.0001) %MON exf_sflux_min                =  -2.3049134072515E-06
(PID.TID 0000.0001) %MON exf_sflux_mean               =   5.9150253727387E-09
(PID.TID 0000.0001) %MON exf_sflux_sd                 =   8.7508970831099E-08
(PID.TID 0000.0001) %MON exf_sflux_del2               =   2.3242101731719E-10
(PID.TID 0000.0001) %MON exf_wspeed_max               =   2.8848541577657E+01
(PID.TID 0000.0001) %MON exf_wspeed_min               =   3.3040566307803E-01
(PID.TID 0000.0001) %MON exf_wspeed_mean              =   7.0151300911848E+00
(PID.TID 0000.0001) %MON exf_wspeed_sd                =   3.1481047994145E+00
(PID.TID 0000.0001) %MON exf_wspeed_del2              =   1.2195742692900E-02
(PID.TID 0000.0001) %MON exf_atemp_max                =   3.0389309889476E+02
(PID.TID 0000.0001) %MON exf_atemp_min                =   2.3369407246908E+02
(PID.TID 0000.0001) %MON exf_atemp_mean               =   2.8909508832541E+02
(PID.TID 0000.0001) %MON exf_atemp_sd                 =   1.2241100693579E+01
(PID.TID 0000.0001) %MON exf_atemp_del2               =   2.6320976081150E-02
(PID.TID 0000.0001) %MON exf_aqh_max                  =   2.1990895581742E-02
(PID.TID 0000.0001) %MON exf_aqh_min                  =   1.2052610569905E-04
(PID.TID 0000.0001) %MON exf_aqh_mean                 =   1.0930213519048E-02
(PID.TID 0000.0001) %MON exf_aqh_sd                   =   5.6344131771904E-03
(PID.TID 0000.0001) %MON exf_aqh_del2                 =   1.4720611333862E-05
(PID.TID 0000.0001) %MON exf_lwflux_max               =   2.2741547361482E+02
(PID.TID 0000.0001) %MON exf_lwflux_min               =  -2.2933860068928E+01
(PID.TID 0000.0001) %MON exf_lwflux_mean              =   4.8941636969498E+01
(PID.TID 0000.0001) %MON exf_lwflux_sd                =   2.9588775778118E+01
(PID.TID 0000.0001) %MON exf_lwflux_del2              =   1.0049364965810E-01
(PID.TID 0000.0001) %MON exf_evap_max                 =   2.2594237856468E-07
(PID.TID 0000.0001) %MON exf_evap_min                 =  -3.5661090908171E-08
(PID.TID 0000.0001) %MON exf_evap_mean                =   4.4988337281978E-08
(PID.TID 0000.0001) %MON exf_evap_sd                  =   2.9112740170006E-08
(PID.TID 0000.0001) %MON exf_evap_del2                =   7.2221624863614E-11
(PID.TID 0000.0001) %MON exf_precip_max               =   2.3561425829636E-06
(PID.TID 0000.0001) %MON exf_precip_min               =  -1.4301803297201E-08
(PID.TID 0000.0001) %MON exf_precip_mean              =   3.6028164394619E-08
(PID.TID 0000.0001) %MON exf_precip_sd                =   7.6098887916352E-08
(PID.TID 0000.0001) %MON exf_precip_del2              =   2.2803588865528E-10
(PID.TID 0000.0001) %MON exf_swflux_max               =   2.6780729325225E+01
(PID.TID 0000.0001) %MON exf_swflux_min               =  -8.1227597698329E+02
(PID.TID 0000.0001) %MON exf_swflux_mean              =  -1.8808294653224E+02
(PID.TID 0000.0001) %MON exf_swflux_sd                =   2.0651758300727E+02
(PID.TID 0000.0001) %MON exf_swflux_del2              =   3.7564531902151E-01
(PID.TID 0000.0001) %MON exf_swdown_max               =   8.7597214762370E+02
(PID.TID 0000.0001) %MON exf_swdown_min               =  -3.3395130157471E+01
(PID.TID 0000.0001) %MON exf_swdown_mean              =   2.0405399448421E+02
(PID.TID 0000.0001) %MON exf_swdown_sd                =   2.2333726837617E+02
(PID.TID 0000.0001) %MON exf_swdown_del2              =   4.0810072775576E-01
(PID.TID 0000.0001) %MON exf_lwdown_max               =   4.6224914042155E+02
(PID.TID 0000.0001) %MON exf_lwdown_min               =   7.2225187937419E+01
(PID.TID 0000.0001) %MON exf_lwdown_mean              =   3.6273749279420E+02
(PID.TID 0000.0001) %MON exf_lwdown_sd                =   6.6195101500766E+01
(PID.TID 0000.0001) %MON exf_lwdown_del2              =   4.8692885029269E-01
(PID.TID 0000.0001) %MON exf_runoff_max               =   2.0276180741289E-06
(PID.TID 0000.0001) %MON exf_runoff_min               =   0.0000000000000E+00
(PID.TID 0000.0001) %MON exf_runoff_mean              =   3.0451475146199E-09
(PID.TID 0000.0001) %MON exf_runoff_sd                =   2.3876973943833E-08
(PID.TID 0000.0001) %MON exf_runoff_del2              =   1.8093691565159E-11
(PID.TID 0000.0001) // =======================================================
(PID.TID 0000.0001) // End MONITOR EXF statistics
(PID.TID 0000.0001) // =======================================================
 SEAICE_LSR: Residual Initial ipass,Uice,Vice=    1  1.32721793E-01  1.59491875E-01
 SEAICE_LSR: Residual FrDrift U_fd,V_fd=  7.89908602E+01  5.68434926E+01
 SEAICE_LSR (ipass=   1) iters,dU,Resid=   180  1.94679182E-04  8.94280268E-04
 SEAICE_LSR (ipass=   1) iters,dV,Resid=   180  1.23560853E-04  9.03256001E-04
 SEAICE_LSR: Residual Initial ipass,Uice,Vice=    2  1.06494054E+00  3.70913957E-01
 SEAICE_LSR: Residual FrDrift U_fd,V_fd=  7.89858206E+01  5.67722284E+01
 SEAICE_LSR (ipass=   2) iters,dU,Resid=    88  2.77548614E-05  2.42685538E-04
 SEAICE_LSR (ipass=   2) iters,dV,Resid=    88  1.92808021E-04  1.72002861E-03
 cg2d: Sum(rhs),rhsMax =   3.15805011598999E+00  4.29764735930336E-01
 cg2d: Sum(rhs),rhsMax =   3.19717662303139E+00  4.32234337769515E-01
(PID.TID 0000.0001)      cg2d_init_res =   3.89600086911723E-01
(PID.TID 0000.0001)      cg2d_iters(min,last) =      -1      91
(PID.TID 0000.0001)      cg2d_last_res =   6.71770878877505E-06
(PID.TID 0000.0001) // =======================================================
(PID.TID 0000.0001) // Begin MONITOR dynamic field statistics
(PID.TID 0000.0001) // =======================================================
(PID.TID 0000.0001) %MON time_tsnumber                =                     6
(PID.TID 0000.0001) %MON time_secondsf                =   2.1600000000000E+04
(PID.TID 0000.0001) %MON dynstat_eta_max              =   1.3076227857723E+00
(PID.TID 0000.0001) %MON dynstat_eta_min              =  -4.5643701127774E+00
(PID.TID 0000.0001) %MON dynstat_eta_mean             =  -1.6181905230575E-03
(PID.TID 0000.0001) %MON dynstat_eta_sd               =   7.4453339938960E-01
(PID.TID 0000.0001) %MON dynstat_eta_del2             =   2.7938147559737E-04
(PID.TID 0000.0001) %MON dynstat_uvel_max             =   9.6172168029330E-01
(PID.TID 0000.0001) %MON dynstat_uvel_min             =  -7.3729026007926E-01
(PID.TID 0000.0001) %MON dynstat_uvel_mean            =   1.5231880566963E-03
(PID.TID 0000.0001) %MON dynstat_uvel_sd              =   2.2058449229172E-02
(PID.TID 0000.0001) %MON dynstat_uvel_del2            =   1.6703948267024E-05
(PID.TID 0000.0001) %MON dynstat_vvel_max             =   9.7462862196682E-01
(PID.TID 0000.0001) %MON dynstat_vvel_min             =  -9.4227971630179E-01
(PID.TID 0000.0001) %MON dynstat_vvel_mean            =   1.1552435987053E-03
(PID.TID 0000.0001) %MON dynstat_vvel_sd              =   2.4028390861102E-02
(PID.TID 0000.0001) %MON dynstat_vvel_del2            =   1.7904072841389E-05
(PID.TID 0000.0001) %MON dynstat_wvel_max             =   6.9704500119275E-04
(PID.TID 0000.0001) %MON dynstat_wvel_min             =  -1.2533058243079E-03
(PID.TID 0000.0001) %MON dynstat_wvel_mean            =  -7.4449048335764E-09
(PID.TID 0000.0001) %MON dynstat_wvel_sd              =   3.0090351356781E-05
(PID.TID 0000.0001) %MON dynstat_wvel_del2            =   3.4043871656702E-08
(PID.TID 0000.0001) %MON dynstat_theta_max            =   3.2605969181320E+01
(PID.TID 0000.0001) %MON dynstat_theta_min            =  -2.0421446244076E+00
(PID.TID 0000.0001) %MON dynstat_theta_mean           =   3.5905984857108E+00
(PID.TID 0000.0001) %MON dynstat_theta_sd             =   4.4365921283660E+00
(PID.TID 0000.0001) %MON dynstat_theta_del2           =   1.0862073084716E-04
(PID.TID 0000.0001) %MON dynstat_salt_max             =   4.0711518284050E+01
(PID.TID 0000.0001) %MON dynstat_salt_min             =   1.7455944577355E+01
(PID.TID 0000.0001) %MON dynstat_salt_mean            =   3.4725689571804E+01
(PID.TID 0000.0001) %MON dynstat_salt_sd              =   3.7887685409674E-01
(PID.TID 0000.0001) %MON dynstat_salt_del2            =   2.7010903614910E-05
(PID.TID 0000.0001) %MON dynstat_sst_max              =   3.2605945097149E+01
(PID.TID 0000.0001) %MON dynstat_sst_min              =  -1.9610858938237E+00
(PID.TID 0000.0001) %MON dynstat_sst_mean             =   1.8512211919619E+01
(PID.TID 0000.0001) %MON dynstat_sst_sd               =   1.0082736717073E+01
(PID.TID 0000.0001) %MON dynstat_sst_del2             =   8.8111191588029E-04
(PID.TID 0000.0001) %MON dynstat_sss_max              =   3.9712520116912E+01
(PID.TID 0000.0001) %MON dynstat_sss_min              =   1.7455944577355E+01
(PID.TID 0000.0001) %MON dynstat_sss_mean             =   3.4720563099563E+01
(PID.TID 0000.0001) %MON dynstat_sss_sd               =   1.2189973136029E+00
(PID.TID 0000.0001) %MON dynstat_sss_del2             =   3.9545290453339E-04
(PID.TID 0000.0001) %MON forcing_qnet_max             =   8.8395607987600E+02
(PID.TID 0000.0001) %MON forcing_qnet_min             =  -1.0044967301256E+03
(PID.TID 0000.0001) %MON forcing_qnet_mean            =  -1.5185749010468E+01
(PID.TID 0000.0001) %MON forcing_qnet_sd              =   2.1431412888170E+02
(PID.TID 0000.0001) %MON forcing_qnet_del2            =   1.6438147973359E-01
(PID.TID 0000.0001) %MON forcing_qsw_max              =   2.5779817606216E+01
(PID.TID 0000.0001) %MON forcing_qsw_min              =  -7.5262870141514E+02
(PID.TID 0000.0001) %MON forcing_qsw_mean             =  -1.9044746128785E+02
(PID.TID 0000.0001) %MON forcing_qsw_sd               =   1.8370861981327E+02
(PID.TID 0000.0001) %MON forcing_qsw_del2             =   7.7113701284323E-02
(PID.TID 0000.0001) %MON forcing_empmr_max            =   2.2341460954529E-03
(PID.TID 0000.0001) %MON forcing_empmr_min            =  -2.4313023175958E-03
(PID.TID 0000.0001) %MON forcing_empmr_mean           =   5.6603981088918E-06
(PID.TID 0000.0001) %MON forcing_empmr_sd             =   1.0723635109502E-04
(PID.TID 0000.0001) %MON forcing_empmr_del2           =   4.9656818891484E-07
(PID.TID 0000.0001) %MON forcing_fu_max               =   1.6894211109957E+00
(PID.TID 0000.0001) %MON forcing_fu_min               =  -2.0068868080996E+00
(PID.TID 0000.0001) %MON forcing_fu_mean              =   1.3764987498099E-02
(PID.TID 0000.0001) %MON forcing_fu_sd                =   1.1102886419364E-01
(PID.TID 0000.0001) %MON forcing_fu_del2              =   1.0950534576951E-04
(PID.TID 0000.0001) %MON forcing_fv_max               =   1.5637985885084E+00
(PID.TID 0000.0001) %MON forcing_fv_min               =  -7.0438142020236E-01
(PID.TID 0000.0001) %MON forcing_fv_mean              =   4.8611412009765E-03
(PID.TID 0000.0001) %MON forcing_fv_sd                =   1.2118322742748E-01
(PID.TID 0000.0001) %MON forcing_fv_del2              =   1.0395678631070E-04
(PID.TID 0000.0001) %MON trAdv_CFL_u_max              =   9.6849323812991E-02
(PID.TID 0000.0001) %MON trAdv_CFL_v_max              =   8.3278079263175E-02
(PID.TID 0000.0001) %MON trAdv_CFL_w_max              =   2.8441940123970E-01
(PID.TID 0000.0001) %MON advcfl_uvel_max              =   9.0329431249633E-02
(PID.TID 0000.0001) %MON advcfl_vvel_max              =   8.3104946229907E-02
(PID.TID 0000.0001) %MON advcfl_wvel_max              =   2.8633441541357E-01
(PID.TID 0000.0001) %MON advcfl_W_hf_max              =   2.8748823431279E-01
(PID.TID 0000.0001) %MON pe_b_mean                    =   4.3832887757273E-04
(PID.TID 0000.0001) %MON ke_max                       =   4.7508181649531E-01
(PID.TID 0000.0001) %MON ke_mean                      =   5.1478984672661E-04
(PID.TID 0000.0001) %MON ke_vol                       =   1.3349973046945E+18
(PID.TID 0000.0001) %MON vort_r_min                   =  -3.6089719128374E-05
(PID.TID 0000.0001) %MON vort_r_max                   =   3.4651907099437E-05
(PID.TID 0000.0001) %MON vort_a_mean                  =  -1.9727864647440E-05
(PID.TID 0000.0001) %MON vort_a_sd                    =   7.4543391183603E-05
(PID.TID 0000.0001) %MON vort_p_mean                  =  -2.1760536377232E-05
(PID.TID 0000.0001) %MON vort_p_sd                    =   9.7240221426891E-05
(PID.TID 0000.0001) %MON surfExpan_theta_mean         =   1.2805156739508E-07
(PID.TID 0000.0001) %MON surfExpan_salt_mean          =   4.5823767754615E-08
(PID.TID 0000.0001) // =======================================================
(PID.TID 0000.0001) // End MONITOR dynamic field statistics
(PID.TID 0000.0001) // =======================================================
(PID.TID 0000.0001) // =======================================================
(PID.TID 0000.0001) // Begin MONITOR SEAICE statistics
(PID.TID 0000.0001) // =======================================================
(PID.TID 0000.0001) %MON seaice_tsnumber              =                     6
(PID.TID 0000.0001) %MON seaice_time_sec              =   2.1600000000000E+04
(PID.TID 0000.0001) %MON seaice_uice_max              =   4.0000000000000E-01
(PID.TID 0000.0001) %MON seaice_uice_min              =  -4.0000000000000E-01
(PID.TID 0000.0001) %MON seaice_uice_mean             =   6.6024971723745E-03
(PID.TID 0000.0001) %MON seaice_uice_sd               =   1.9870228741759E-01
(PID.TID 0000.0001) %MON seaice_uice_del2             =   2.1339596763960E-04
(PID.TID 0000.0001) %MON seaice_vice_max              =   4.0000000000000E-01
(PID.TID 0000.0001) %MON seaice_vice_min              =  -4.0000000000000E-01
(PID.TID 0000.0001) %MON seaice_vice_mean             =  -1.2855125144405E-02
(PID.TID 0000.0001) %MON seaice_vice_sd               =   2.0715278368618E-01
(PID.TID 0000.0001) %MON seaice_vice_del2             =   2.1910505336937E-04
(PID.TID 0000.0001) %MON seaice_area_max              =   9.5000000000000E-01
(PID.TID 0000.0001) %MON seaice_area_min              =   0.0000000000000E+00
(PID.TID 0000.0001) %MON seaice_area_mean             =   3.9316167449555E-02
(PID.TID 0000.0001) %MON seaice_area_sd               =   1.7943188958469E-01
(PID.TID 0000.0001) %MON seaice_area_del2             =   2.6906598486398E-04
(PID.TID 0000.0001) %MON seaice_heff_max              =   3.8235032292564E+00
(PID.TID 0000.0001) %MON seaice_heff_min              =   0.0000000000000E+00
(PID.TID 0000.0001) %MON seaice_heff_mean             =   5.3428910576136E-02
(PID.TID 0000.0001) %MON seaice_heff_sd               =   3.0482116185028E-01
(PID.TID 0000.0001) %MON seaice_heff_del2             =   2.9125529124248E-04
(PID.TID 0000.0001) %MON seaice_hsnow_max             =   8.8102134428139E-01
(PID.TID 0000.0001) %MON seaice_hsnow_min             =  -2.2063952935323E-05
(PID.TID 0000.0001) %MON seaice_hsnow_mean            =   5.2501067542394E-03
(PID.TID 0000.0001) %MON seaice_hsnow_sd              =   3.1458091329480E-02
(PID.TID 0000.0001) %MON seaice_hsnow_del2            =   5.3903057827997E-05
(PID.TID 0000.0001) // =======================================================
(PID.TID 0000.0001) // End MONITOR SEAICE statistics
(PID.TID 0000.0001) // =======================================================
(PID.TID 0000.0001) // =======================================================
(PID.TID 0000.0001) // Begin MONITOR EXF statistics
(PID.TID 0000.0001) // =======================================================
(PID.TID 0000.0001) %MON exf_tsnumber                 =                     6
(PID.TID 0000.0001) %MON exf_time_sec                 =   2.1600000000000E+04
(PID.TID 0000.0001) %MON exf_ustress_max              =   2.4789261479641E+00
(PID.TID 0000.0001) %MON exf_ustress_min              =  -1.8020360096560E+00
(PID.TID 0000.0001) %MON exf_ustress_mean             =   1.3684847300780E-02
(PID.TID 0000.0001) %MON exf_ustress_sd               =   1.0525877046437E-01
(PID.TID 0000.0001) %MON exf_ustress_del2             =   1.0647835665304E-04
(PID.TID 0000.0001) %MON exf_vstress_max              =   1.5341421051046E+00
(PID.TID 0000.0001) %MON exf_vstress_min              =  -6.2171987810968E-01
(PID.TID 0000.0001) %MON exf_vstress_mean             =   3.7059654360590E-03
(PID.TID 0000.0001) %MON exf_vstress_sd               =   1.1436697476601E-01
(PID.TID 0000.0001) %MON exf_vstress_del2             =   8.3750275432580E-05
(PID.TID 0000.0001) %MON exf_hflux_max                =   1.3840459013525E+03
(PID.TID 0000.0001) %MON exf_hflux_min                =  -6.0676386417287E+02
(PID.TID 0000.0001) %MON exf_hflux_mean               =  -4.8468543505664E+00
(PID.TID 0000.0001) %MON exf_hflux_sd                 =   2.3563381901502E+02
(PID.TID 0000.0001) %MON exf_hflux_del2               =   4.0829191997377E-01
(PID.TID 0000.0001) %MON exf_sflux_max                =   2.0978662531468E-07
(PID.TID 0000.0001) %MON exf_sflux_min                =  -2.5583857682668E-06
(PID.TID 0000.0001) %MON exf_sflux_mean               =   5.4818061791196E-09
(PID.TID 0000.0001) %MON exf_sflux_sd                 =   8.6876420165380E-08
(PID.TID 0000.0001) %MON exf_sflux_del2               =   2.2133724600548E-10
(PID.TID 0000.0001) %MON exf_wspeed_max               =   2.4499196052551E+01
(PID.TID 0000.0001) %MON exf_wspeed_min               =   4.3180893361568E-01
(PID.TID 0000.0001) %MON exf_wspeed_mean              =   6.9739038582439E+00
(PID.TID 0000.0001) %MON exf_wspeed_sd                =   3.0845765940038E+00
(PID.TID 0000.0001) %MON exf_wspeed_del2              =   1.1991515714576E-02
(PID.TID 0000.0001) %MON exf_atemp_max                =   3.0349612464905E+02
(PID.TID 0000.0001) %MON exf_atemp_min                =   2.3307404937744E+02
(PID.TID 0000.0001) %MON exf_atemp_mean               =   2.8909425003703E+02
(PID.TID 0000.0001) %MON exf_atemp_sd                 =   1.2250550410819E+01
(PID.TID 0000.0001) %MON exf_atemp_del2               =   2.6350985093589E-02
(PID.TID 0000.0001) %MON exf_aqh_max                  =   2.1750809624791E-02
(PID.TID 0000.0001) %MON exf_aqh_min                  =   1.1527702008607E-04
(PID.TID 0000.0001) %MON exf_aqh_mean                 =   1.0895988015961E-02
(PID.TID 0000.0001) %MON exf_aqh_sd                   =   5.6090532714760E-03
(PID.TID 0000.0001) %MON exf_aqh_del2                 =   1.4655703325694E-05
(PID.TID 0000.0001) %MON exf_lwflux_max               =   2.2774504338594E+02
(PID.TID 0000.0001) %MON exf_lwflux_min               =  -2.2859379534786E+01
(PID.TID 0000.0001) %MON exf_lwflux_mean              =   4.8923542426111E+01
(PID.TID 0000.0001) %MON exf_lwflux_sd                =   2.9226727154849E+01
(PID.TID 0000.0001) %MON exf_lwflux_del2              =   1.0048145506696E-01
(PID.TID 0000.0001) %MON exf_evap_max                 =   2.3067527718384E-07
(PID.TID 0000.0001) %MON exf_evap_min                 =  -3.2280485201808E-08
(PID.TID 0000.0001) %MON exf_evap_mean                =   4.4988073462024E-08
(PID.TID 0000.0001) %MON exf_evap_sd                  =   2.8605675896423E-08
(PID.TID 0000.0001) %MON exf_evap_del2                =   7.1274303578202E-11
(PID.TID 0000.0001) %MON exf_precip_max               =   2.6066077225551E-06
(PID.TID 0000.0001) %MON exf_precip_min               =  -1.4339643250594E-08
(PID.TID 0000.0001) %MON exf_precip_mean              =   3.6462024193911E-08
(PID.TID 0000.0001) %MON exf_precip_sd                =   7.5400041675962E-08
(PID.TID 0000.0001) %MON exf_precip_del2              =   2.1596535673544E-10
(PID.TID 0000.0001) %MON exf_swflux_max               =   2.4778885911533E+01
(PID.TID 0000.0001) %MON exf_swflux_min               =  -7.2625910890471E+02
(PID.TID 0000.0001) %MON exf_swflux_mean              =  -1.9656692928241E+02
(PID.TID 0000.0001) %MON exf_swflux_sd                =   1.7809136511920E+02
(PID.TID 0000.0001) %MON exf_swflux_del2              =   3.6359446164653E-01
(PID.TID 0000.0001) %MON exf_swdown_max               =   7.8362698364258E+02
(PID.TID 0000.0001) %MON exf_swdown_min               =  -3.3434467315674E+01
(PID.TID 0000.0001) %MON exf_swdown_mean              =   2.1322977268756E+02
(PID.TID 0000.0001) %MON exf_swdown_sd                =   1.9233990540940E+02
(PID.TID 0000.0001) %MON exf_swdown_del2              =   3.9486155306428E-01
(PID.TID 0000.0001) %MON exf_lwdown_max               =   4.6207942199707E+02
(PID.TID 0000.0001) %MON exf_lwdown_min               =   7.1885433197021E+01
(PID.TID 0000.0001) %MON exf_lwdown_mean              =   3.6276094066823E+02
(PID.TID 0000.0001) %MON exf_lwdown_sd                =   6.5971708458692E+01
(PID.TID 0000.0001) %MON exf_lwdown_del2              =   4.8633853932729E-01
(PID.TID 0000.0001) %MON exf_runoff_max               =   2.0307722329269E-06
(PID.TID 0000.0001) %MON exf_runoff_min               =   0.0000000000000E+00
(PID.TID 0000.0001) %MON exf_runoff_mean              =   3.0442430889937E-09
(PID.TID 0000.0001) %MON exf_runoff_sd                =   2.3906187182725E-08
(PID.TID 0000.0001) %MON exf_runoff_del2              =   1.8104023164270E-11
(PID.TID 0000.0001) // =======================================================
(PID.TID 0000.0001) // End MONITOR EXF statistics
(PID.TID 0000.0001) // =======================================================
 SEAICE_LSR: Residual Initial ipass,Uice,Vice=    1  1.19625151E-01  1.47757507E-01
 SEAICE_LSR: Residual FrDrift U_fd,V_fd=  7.89137577E+01  5.99692357E+01
 SEAICE_LSR (ipass=   1) iters,dU,Resid=   256  1.97183770E-04  1.33230511E-03
 SEAICE_LSR (ipass=   1) iters,dV,Resid=   256  1.01743965E-04  1.25893598E-03
 SEAICE_LSR: Residual Initial ipass,Uice,Vice=    2  5.85028847E-01  3.97046520E-01
 SEAICE_LSR: Residual FrDrift U_fd,V_fd=  7.88190747E+01  5.94861716E+01
 SEAICE_LSR (ipass=   2) iters,dU,Resid=    84  5.91048910E-05  5.53275428E-04
 SEAICE_LSR (ipass=   2) iters,dV,Resid=    84  1.94604677E-04  2.11932708E-03
 cg2d: Sum(rhs),rhsMax =   3.23541776202084E+00  4.33428281832806E-01
 cg2d: Sum(rhs),rhsMax =   3.27254871863136E+00  4.33911565907625E-01
(PID.TID 0000.0001)      cg2d_init_res =   3.60705827687673E-01
(PID.TID 0000.0001)      cg2d_iters(min,last) =      -1      89
(PID.TID 0000.0001)      cg2d_last_res =   6.67584285931569E-06
(PID.TID 0000.0001) // =======================================================
(PID.TID 0000.0001) // Begin MONITOR dynamic field statistics
(PID.TID 0000.0001) // =======================================================
(PID.TID 0000.0001) %MON time_tsnumber                =                     8
(PID.TID 0000.0001) %MON time_secondsf                =   2.8800000000000E+04
(PID.TID 0000.0001) %MON dynstat_eta_max              =   1.2387552807818E+00
(PID.TID 0000.0001) %MON dynstat_eta_min              =  -4.5605257830348E+00
(PID.TID 0000.0001) %MON dynstat_eta_mean             =  -1.6563386847588E-03
(PID.TID 0000.0001) %MON dynstat_eta_sd               =   7.4465245934235E-01
(PID.TID 0000.0001) %MON dynstat_eta_del2             =   2.7718538098429E-04
(PID.TID 0000.0001) %MON dynstat_uvel_max             =   1.0518560283804E+00
(PID.TID 0000.0001) %MON dynstat_uvel_min             =  -6.9555029798257E-01
(PID.TID 0000.0001) %MON dynstat_uvel_mean            =   1.5153553216576E-03
(PID.TID 0000.0001) %MON dynstat_uvel_sd              =   2.2035506656046E-02
(PID.TID 0000.0001) %MON dynstat_uvel_del2            =   1.6077713636306E-05
(PID.TID 0000.0001) %MON dynstat_vvel_max             =   9.8718946604805E-01
(PID.TID 0000.0001) %MON dynstat_vvel_min             =  -9.3916670355274E-01
(PID.TID 0000.0001) %MON dynstat_vvel_mean            =   1.1740884053533E-03
(PID.TID 0000.0001) %MON dynstat_vvel_sd              =   2.4042795015617E-02
(PID.TID 0000.0001) %MON dynstat_vvel_del2            =   1.7207709536211E-05
(PID.TID 0000.0001) %MON dynstat_wvel_max             =   6.8325352039755E-04
(PID.TID 0000.0001) %MON dynstat_wvel_min             =  -1.2833415914710E-03
(PID.TID 0000.0001) %MON dynstat_wvel_mean            =  -1.2954102977161E-08
(PID.TID 0000.0001) %MON dynstat_wvel_sd              =   3.0276158611935E-05
(PID.TID 0000.0001) %MON dynstat_wvel_del2            =   3.4667072610733E-08
(PID.TID 0000.0001) %MON dynstat_theta_max            =   3.2583952245078E+01
(PID.TID 0000.0001) %MON dynstat_theta_min            =  -2.0421834498449E+00
(PID.TID 0000.0001) %MON dynstat_theta_mean           =   3.5906086660448E+00
(PID.TID 0000.0001) %MON dynstat_theta_sd             =   4.4366042229617E+00
(PID.TID 0000.0001) %MON dynstat_theta_del2           =   1.0836721886225E-04
(PID.TID 0000.0001) %MON dynstat_salt_max             =   4.0711514170618E+01
(PID.TID 0000.0001) %MON dynstat_salt_min             =   1.7454995267457E+01
(PID.TID 0000.0001) %MON dynstat_salt_mean            =   3.4725689900094E+01
(PID.TID 0000.0001) %MON dynstat_salt_sd              =   3.7887580490122E-01
(PID.TID 0000.0001) %MON dynstat_salt_del2            =   2.6886155079911E-05
(PID.TID 0000.0001) %MON dynstat_sst_max              =   3.2583928210962E+01
(PID.TID 0000.0001) %MON dynstat_sst_min              =  -1.9611012800226E+00
(PID.TID 0000.0001) %MON dynstat_sst_mean             =   1.8513591567663E+01
(PID.TID 0000.0001) %MON dynstat_sst_sd               =   1.0082749639246E+01
(PID.TID 0000.0001) %MON dynstat_sst_del2             =   8.8224439467327E-04
(PID.TID 0000.0001) %MON dynstat_sss_max              =   3.9712131438437E+01
(PID.TID 0000.0001) %MON dynstat_sss_min              =   1.7454995267457E+01
(PID.TID 0000.0001) %MON dynstat_sss_mean             =   3.4720729680310E+01
(PID.TID 0000.0001) %MON dynstat_sss_sd               =   1.2189640416193E+00
(PID.TID 0000.0001) %MON dynstat_sss_del2             =   3.9527014336019E-04
(PID.TID 0000.0001) %MON forcing_qnet_max             =   9.3373831478489E+02
(PID.TID 0000.0001) %MON forcing_qnet_min             =  -8.4834105757453E+02
(PID.TID 0000.0001) %MON forcing_qnet_mean            =  -2.3769321243588E+01
(PID.TID 0000.0001) %MON forcing_qnet_sd              =   2.2100001600653E+02
(PID.TID 0000.0001) %MON forcing_qnet_del2            =   1.6053931409925E-01
(PID.TID 0000.0001) %MON forcing_qsw_max              =   2.4637717220768E+01
(PID.TID 0000.0001) %MON forcing_qsw_min              =  -7.3107040706593E+02
(PID.TID 0000.0001) %MON forcing_qsw_mean             =  -1.9890632522519E+02
(PID.TID 0000.0001) %MON forcing_qsw_sd               =   1.8844476000855E+02
(PID.TID 0000.0001) %MON forcing_qsw_del2             =   8.1961290802320E-02
(PID.TID 0000.0001) %MON forcing_empmr_max            =   2.2036891129939E-03
(PID.TID 0000.0001) %MON forcing_empmr_min            =  -2.6862068003789E-03
(PID.TID 0000.0001) %MON forcing_empmr_mean           =   5.3717035450281E-06
(PID.TID 0000.0001) %MON forcing_empmr_sd             =   1.0833031760276E-04
(PID.TID 0000.0001) %MON forcing_empmr_del2           =   4.8718013254788E-07
(PID.TID 0000.0001) %MON forcing_fu_max               =   1.4303429185197E+00
(PID.TID 0000.0001) %MON forcing_fu_min               =  -1.9075814077483E+00
(PID.TID 0000.0001) %MON forcing_fu_mean              =   1.3347616916039E-02
(PID.TID 0000.0001) %MON forcing_fu_sd                =   1.0965509074354E-01
(PID.TID 0000.0001) %MON forcing_fu_del2              =   1.0854237300922E-04
(PID.TID 0000.0001) %MON forcing_fv_max               =   1.5742797135359E+00
(PID.TID 0000.0001) %MON forcing_fv_min               =  -7.1103249976564E-01
(PID.TID 0000.0001) %MON forcing_fv_mean              =   4.7096602985533E-03
(PID.TID 0000.0001) %MON forcing_fv_sd                =   1.2278566214094E-01
(PID.TID 0000.0001) %MON forcing_fv_del2              =   1.0826103384079E-04
(PID.TID 0000.0001) %MON trAdv_CFL_u_max              =   9.4256191261065E-02
(PID.TID 0000.0001) %MON trAdv_CFL_v_max              =   7.7650765629480E-02
(PID.TID 0000.0001) %MON trAdv_CFL_w_max              =   2.6038418022221E-01
(PID.TID 0000.0001) %MON advcfl_uvel_max              =   9.7290212376235E-02
(PID.TID 0000.0001) %MON advcfl_vvel_max              =   7.7489225972745E-02
(PID.TID 0000.0001) %MON advcfl_wvel_max              =   2.6239630636942E-01
(PID.TID 0000.0001) %MON advcfl_W_hf_max              =   2.6345300562878E-01
(PID.TID 0000.0001) %MON pe_b_mean                    =   4.3808042444771E-04
(PID.TID 0000.0001) %MON ke_max                       =   4.8910078558370E-01
(PID.TID 0000.0001) %MON ke_mean                      =   5.1464579048049E-04
(PID.TID 0000.0001) %MON ke_vol                       =   1.3349972906753E+18
(PID.TID 0000.0001) %MON vort_r_min                   =  -3.6057121288314E-05
(PID.TID 0000.0001) %MON vort_r_max                   =   3.5256059535879E-05
(PID.TID 0000.0001) %MON vort_a_mean                  =  -1.9727864647440E-05
(PID.TID 0000.0001) %MON vort_a_sd                    =   7.4543373140714E-05
(PID.TID 0000.0001) %MON vort_p_mean                  =  -2.1760536619479E-05
(PID.TID 0000.0001) %MON vort_p_sd                    =   9.7240410348525E-05
(PID.TID 0000.0001) %MON surfExpan_theta_mean         =   7.3065698893172E-09
(PID.TID 0000.0001) %MON surfExpan_salt_mean          =   6.2923259873387E-08
(PID.TID 0000.0001) // =======================================================
(PID.TID 0000.0001) // End MONITOR dynamic field statistics
(PID.TID 0000.0001) // =======================================================
(PID.TID 0000.0001) // =======================================================
(PID.TID 0000.0001) // Begin MONITOR SEAICE statistics
(PID.TID 0000.0001) // =======================================================
(PID.TID 0000.0001) %MON seaice_tsnumber              =                     8
(PID.TID 0000.0001) %MON seaice_time_sec              =   2.8800000000000E+04
(PID.TID 0000.0001) %MON seaice_uice_max              =   4.0000000000000E-01
(PID.TID 0000.0001) %MON seaice_uice_min              =  -4.0000000000000E-01
(PID.TID 0000.0001) %MON seaice_uice_mean             =   7.3297649281363E-03
(PID.TID 0000.0001) %MON seaice_uice_sd               =   1.9815887734593E-01
(PID.TID 0000.0001) %MON seaice_uice_del2             =   2.0821175860154E-04
(PID.TID 0000.0001) %MON seaice_vice_max              =   4.0000000000000E-01
(PID.TID 0000.0001) %MON seaice_vice_min              =  -4.0000000000000E-01
(PID.TID 0000.0001) %MON seaice_vice_mean             =  -1.2986098543875E-02
(PID.TID 0000.0001) %MON seaice_vice_sd               =   2.0725165961756E-01
(PID.TID 0000.0001) %MON seaice_vice_del2             =   2.1549032624364E-04
(PID.TID 0000.0001) %MON seaice_area_max              =   9.5000000000000E-01
(PID.TID 0000.0001) %MON seaice_area_min              =   0.0000000000000E+00
(PID.TID 0000.0001) %MON seaice_area_mean             =   3.9286174030678E-02
(PID.TID 0000.0001) %MON seaice_area_sd               =   1.7935322703456E-01
(PID.TID 0000.0001) %MON seaice_area_del2             =   2.6819616541267E-04
(PID.TID 0000.0001) %MON seaice_heff_max              =   3.8242027706239E+00
(PID.TID 0000.0001) %MON seaice_heff_min              =   0.0000000000000E+00
(PID.TID 0000.0001) %MON seaice_heff_mean             =   5.3440417732594E-02
(PID.TID 0000.0001) %MON seaice_heff_sd               =   3.0490862489547E-01
(PID.TID 0000.0001) %MON seaice_heff_del2             =   2.8932123658813E-04
(PID.TID 0000.0001) %MON seaice_hsnow_max             =   9.1697531716630E-01
(PID.TID 0000.0001) %MON seaice_hsnow_min             =  -2.1939918121372E-05
(PID.TID 0000.0001) %MON seaice_hsnow_mean            =   5.2487903266865E-03
(PID.TID 0000.0001) %MON seaice_hsnow_sd              =   3.1458167434168E-02
(PID.TID 0000.0001) %MON seaice_hsnow_del2            =   5.3174318171635E-05
(PID.TID 0000.0001) // =======================================================
(PID.TID 0000.0001) // End MONITOR SEAICE statistics
(PID.TID 0000.0001) // =======================================================
(PID.TID 0000.0001) // =======================================================
(PID.TID 0000.0001) // Begin MONITOR EXF statistics
(PID.TID 0000.0001) // =======================================================
(PID.TID 0000.0001) %MON exf_tsnumber                 =                     8
(PID.TID 0000.0001) %MON exf_time_sec                 =   2.8800000000000E+04
(PID.TID 0000.0001) %MON exf_ustress_max              =   1.6198373579783E+00
(PID.TID 0000.0001) %MON exf_ustress_min              =  -1.9023385068828E+00
(PID.TID 0000.0001) %MON exf_ustress_mean             =   1.3342479551861E-02
(PID.TID 0000.0001) %MON exf_ustress_sd               =   1.0482629597231E-01
(PID.TID 0000.0001) %MON exf_ustress_del2             =   1.0604080586879E-04
(PID.TID 0000.0001) %MON exf_vstress_max              =   1.5054118605597E+00
(PID.TID 0000.0001) %MON exf_vstress_min              =  -6.1705346199227E-01
(PID.TID 0000.0001) %MON exf_vstress_mean             =   3.5380229414348E-03
(PID.TID 0000.0001) %MON exf_vstress_sd               =   1.1672104368783E-01
(PID.TID 0000.0001) %MON exf_vstress_del2             =   9.1371690134075E-05
(PID.TID 0000.0001) %MON exf_hflux_max                =   1.2408193657614E+03
(PID.TID 0000.0001) %MON exf_hflux_min                =  -6.5716856671369E+02
(PID.TID 0000.0001) %MON exf_hflux_mean               =  -1.3271478170107E+01
(PID.TID 0000.0001) %MON exf_hflux_sd                 =   2.6687348655122E+02
(PID.TID 0000.0001) %MON exf_hflux_del2               =   4.4707311474613E-01
(PID.TID 0000.0001) %MON exf_sflux_max                =   2.1444951433281E-07
(PID.TID 0000.0001) %MON exf_sflux_min                =  -2.8148088381842E-06
(PID.TID 0000.0001) %MON exf_sflux_mean               =   5.0899800752424E-09
(PID.TID 0000.0001) %MON exf_sflux_sd                 =   9.2232742584797E-08
(PID.TID 0000.0001) %MON exf_sflux_del2               =   2.5181961039134E-10
(PID.TID 0000.0001) %MON exf_wspeed_max               =   2.1230919202169E+01
(PID.TID 0000.0001) %MON exf_wspeed_min               =   3.9974687993526E-01
(PID.TID 0000.0001) %MON exf_wspeed_mean              =   6.9326776253030E+00
(PID.TID 0000.0001) %MON exf_wspeed_sd                =   3.1153476585941E+00
(PID.TID 0000.0001) %MON exf_wspeed_del2              =   1.2020928805698E-02
(PID.TID 0000.0001) %MON exf_atemp_max                =   3.0424515698751E+02
(PID.TID 0000.0001) %MON exf_atemp_min                =   2.3245402628581E+02
(PID.TID 0000.0001) %MON exf_atemp_mean               =   2.8909341174866E+02
(PID.TID 0000.0001) %MON exf_atemp_sd                 =   1.2266935040803E+01
(PID.TID 0000.0001) %MON exf_atemp_del2               =   2.6400978624930E-02
(PID.TID 0000.0001) %MON exf_aqh_max                  =   2.1961823726694E-02
(PID.TID 0000.0001) %MON exf_aqh_min                  =   1.0662613446281E-04
(PID.TID 0000.0001) %MON exf_aqh_mean                 =   1.0861762512874E-02
(PID.TID 0000.0001) %MON exf_aqh_sd                   =   5.5911398111174E-03
(PID.TID 0000.0001) %MON exf_aqh_del2                 =   1.4615759496062E-05
(PID.TID 0000.0001) %MON exf_lwflux_max               =   2.2807461272848E+02
(PID.TID 0000.0001) %MON exf_lwflux_min               =  -2.3629479906788E+01
(PID.TID 0000.0001) %MON exf_lwflux_mean              =   4.8908342740266E+01
(PID.TID 0000.0001) %MON exf_lwflux_sd                =   2.9480407586746E+01
(PID.TID 0000.0001) %MON exf_lwflux_del2              =   1.0163555679772E-01
(PID.TID 0000.0001) %MON exf_evap_max                 =   2.3521600216442E-07
(PID.TID 0000.0001) %MON exf_evap_min                 =  -3.9375723334797E-08
(PID.TID 0000.0001) %MON exf_evap_mean                =   4.5029202731813E-08
(PID.TID 0000.0001) %MON exf_evap_sd                  =   2.8713598937228E-08
(PID.TID 0000.0001) %MON exf_evap_del2                =   7.1997066160603E-11
(PID.TID 0000.0001) %MON exf_precip_max               =   2.8570728621465E-06
(PID.TID 0000.0001) %MON exf_precip_min               =  -1.4377483203987E-08
(PID.TID 0000.0001) %MON exf_precip_mean              =   3.6895883993203E-08
(PID.TID 0000.0001) %MON exf_precip_sd                =   8.1140696115750E-08
(PID.TID 0000.0001) %MON exf_precip_del2              =   2.4539742196239E-10
(PID.TID 0000.0001) %MON exf_swflux_max               =   2.4716441300537E+01
(PID.TID 0000.0001) %MON exf_swflux_min               =  -7.9619566432961E+02
(PID.TID 0000.0001) %MON exf_swflux_mean              =  -2.0505094428056E+02
(PID.TID 0000.0001) %MON exf_swflux_sd                =   2.1408583917893E+02
(PID.TID 0000.0001) %MON exf_swflux_del2              =   4.1073752369991E-01
(PID.TID 0000.0001) %MON exf_swdown_max               =   8.5859584299723E+02
(PID.TID 0000.0001) %MON exf_swdown_min               =  -3.3473804473877E+01
(PID.TID 0000.0001) %MON exf_swdown_mean              =   2.2240555089091E+02
(PID.TID 0000.0001) %MON exf_swdown_sd                =   2.3126447387463E+02
(PID.TID 0000.0001) %MON exf_swdown_del2              =   4.4576977020863E-01
(PID.TID 0000.0001) %MON exf_lwdown_max               =   4.6222062683105E+02
(PID.TID 0000.0001) %MON exf_lwdown_min               =   7.1545678456624E+01
(PID.TID 0000.0001) %MON exf_lwdown_mean              =   3.6278438854226E+02
(PID.TID 0000.0001) %MON exf_lwdown_sd                =   6.6041929983295E+01
(PID.TID 0000.0001) %MON exf_lwdown_del2              =   4.8600454278097E-01
(PID.TID 0000.0001) %MON exf_runoff_max               =   2.0339263917248E-06
(PID.TID 0000.0001) %MON exf_runoff_min               =   0.0000000000000E+00
(PID.TID 0000.0001) %MON exf_runoff_mean              =   3.0433386633674E-09
(PID.TID 0000.0001) %MON exf_runoff_sd                =   2.3935418856969E-08
(PID.TID 0000.0001) %MON exf_runoff_del2              =   1.8114379987919E-11
(PID.TID 0000.0001) // =======================================================
(PID.TID 0000.0001) // End MONITOR EXF statistics
(PID.TID 0000.0001) // =======================================================
 SEAICE_LSR: Residual Initial ipass,Uice,Vice=    1  1.13691038E-01  1.44499819E-01
 SEAICE_LSR: Residual FrDrift U_fd,V_fd=  8.20136482E+01  6.64829248E+01
 SEAICE_LSR (ipass=   1) iters,dU,Resid=   304  1.99953384E-04  1.63850332E-03
 SEAICE_LSR (ipass=   1) iters,dV,Resid=   304  1.16290851E-04  1.13631555E-03
 SEAICE_LSR: Residual Initial ipass,Uice,Vice=    2  1.65647670E-01  3.60520519E-01
 SEAICE_LSR: Residual FrDrift U_fd,V_fd=  8.10963499E+01  6.41661977E+01
 SEAICE_LSR (ipass=   2) iters,dU,Resid=    84  7.22195626E-05  8.17169453E-04
 SEAICE_LSR (ipass=   2) iters,dV,Resid=    84  1.96310613E-04  2.37909144E-03
 cg2d: Sum(rhs),rhsMax =   3.30875566370173E+00  4.16895868922839E-01
 cg2d: Sum(rhs),rhsMax =   3.34401871853345E+00  4.00694705926426E-01
(PID.TID 0000.0001)      cg2d_init_res =   3.31246696960557E-01
(PID.TID 0000.0001)      cg2d_iters(min,last) =      -1      86
(PID.TID 0000.0001)      cg2d_last_res =   6.97324203191323E-06
(PID.TID 0000.0001) // =======================================================
(PID.TID 0000.0001) // Begin MONITOR dynamic field statistics
(PID.TID 0000.0001) // =======================================================
(PID.TID 0000.0001) %MON time_tsnumber                =                    10
(PID.TID 0000.0001) %MON time_secondsf                =   3.6000000000000E+04
(PID.TID 0000.0001) %MON dynstat_eta_max              =   1.1286926911757E+00
(PID.TID 0000.0001) %MON dynstat_eta_min              =  -4.5232822272093E+00
(PID.TID 0000.0001) %MON dynstat_eta_mean             =  -1.6925118744699E-03
(PID.TID 0000.0001) %MON dynstat_eta_sd               =   7.4462701611534E-01
(PID.TID 0000.0001) %MON dynstat_eta_del2             =   2.7612907191963E-04
(PID.TID 0000.0001) %MON dynstat_uvel_max             =   1.0886301799268E+00
(PID.TID 0000.0001) %MON dynstat_uvel_min             =  -6.4692592887165E-01
(PID.TID 0000.0001) %MON dynstat_uvel_mean            =   1.5055427023947E-03
(PID.TID 0000.0001) %MON dynstat_uvel_sd              =   2.1925012616168E-02
(PID.TID 0000.0001) %MON dynstat_uvel_del2            =   1.5626740924132E-05
(PID.TID 0000.0001) %MON dynstat_vvel_max             =   1.0000631018173E+00
(PID.TID 0000.0001) %MON dynstat_vvel_min             =  -9.3531200865682E-01
(PID.TID 0000.0001) %MON dynstat_vvel_mean            =   1.1912160443449E-03
(PID.TID 0000.0001) %MON dynstat_vvel_sd              =   2.4078856145342E-02
(PID.TID 0000.0001) %MON dynstat_vvel_del2            =   1.6707660556050E-05
(PID.TID 0000.0001) %MON dynstat_wvel_max             =   6.8988986160713E-04
(PID.TID 0000.0001) %MON dynstat_wvel_min             =  -1.2517319854796E-03
(PID.TID 0000.0001) %MON dynstat_wvel_mean            =  -9.7941400993047E-09
(PID.TID 0000.0001) %MON dynstat_wvel_sd              =   3.0342869395450E-05
(PID.TID 0000.0001) %MON dynstat_wvel_del2            =   3.5441721468224E-08
(PID.TID 0000.0001) %MON dynstat_theta_max            =   3.2563182459300E+01
(PID.TID 0000.0001) %MON dynstat_theta_min            =  -2.0422285885097E+00
(PID.TID 0000.0001) %MON dynstat_theta_mean           =   3.5906227640683E+00
(PID.TID 0000.0001) %MON dynstat_theta_sd             =   4.4366414959771E+00
(PID.TID 0000.0001) %MON dynstat_theta_del2           =   1.0810066042893E-04
(PID.TID 0000.0001) %MON dynstat_salt_max             =   4.0711510500873E+01
(PID.TID 0000.0001) %MON dynstat_salt_min             =   1.7454687617723E+01
(PID.TID 0000.0001) %MON dynstat_salt_mean            =   3.4725690241649E+01
(PID.TID 0000.0001) %MON dynstat_salt_sd              =   3.7887470050004E-01
(PID.TID 0000.0001) %MON dynstat_salt_del2            =   2.6764527984652E-05
(PID.TID 0000.0001) %MON dynstat_sst_max              =   3.2563158399526E+01
(PID.TID 0000.0001) %MON dynstat_sst_min              =  -1.9610841942035E+00
(PID.TID 0000.0001) %MON dynstat_sst_mean             =   1.8516314884633E+01
(PID.TID 0000.0001) %MON dynstat_sst_sd               =   1.0083729948228E+01
(PID.TID 0000.0001) %MON dynstat_sst_del2             =   8.8356698732194E-04
(PID.TID 0000.0001) %MON dynstat_sss_max              =   3.9711707534943E+01
(PID.TID 0000.0001) %MON dynstat_sss_min              =   1.7454687617723E+01
(PID.TID 0000.0001) %MON dynstat_sss_mean             =   3.4720849341795E+01
(PID.TID 0000.0001) %MON dynstat_sss_sd               =   1.2189292552588E+00
(PID.TID 0000.0001) %MON dynstat_sss_del2             =   3.9514797601328E-04
(PID.TID 0000.0001) %MON forcing_qnet_max             =   9.8349916254266E+02
(PID.TID 0000.0001) %MON forcing_qnet_min             =  -7.6687590177809E+02
(PID.TID 0000.0001) %MON forcing_qnet_mean            =  -3.2135631567443E+01
(PID.TID 0000.0001) %MON forcing_qnet_sd              =   2.7663451252073E+02
(PID.TID 0000.0001) %MON forcing_qnet_del2            =   1.6636588805219E-01
(PID.TID 0000.0001) %MON forcing_qsw_max              =   2.4795240871458E+01
(PID.TID 0000.0001) %MON forcing_qsw_min              =  -9.1033649049394E+02
(PID.TID 0000.0001) %MON forcing_qsw_mean             =  -2.0736096803844E+02
(PID.TID 0000.0001) %MON forcing_qsw_sd               =   2.4928461815274E+02
(PID.TID 0000.0001) %MON forcing_qsw_del2             =   9.8908505645455E-02
(PID.TID 0000.0001) %MON forcing_empmr_max            =   2.1752700161976E-03
(PID.TID 0000.0001) %MON forcing_empmr_min            =  -2.9442352941223E-03
(PID.TID 0000.0001) %MON forcing_empmr_mean           =   5.1014758018899E-06
(PID.TID 0000.0001) %MON forcing_empmr_sd             =   1.1458079253518E-04
(PID.TID 0000.0001) %MON forcing_empmr_del2           =   4.9874356432789E-07
(PID.TID 0000.0001) %MON forcing_fu_max               =   1.2376146927103E+00
(PID.TID 0000.0001) %MON forcing_fu_min               =  -1.8277949476970E+00
(PID.TID 0000.0001) %MON forcing_fu_mean              =   1.2893312136271E-02
(PID.TID 0000.0001) %MON forcing_fu_sd                =   1.1128680541632E-01
(PID.TID 0000.0001) %MON forcing_fu_del2              =   1.1737523358808E-04
(PID.TID 0000.0001) %MON forcing_fv_max               =   1.6182127784813E+00
(PID.TID 0000.0001) %MON forcing_fv_min               =  -8.1006808335780E-01
(PID.TID 0000.0001) %MON forcing_fv_mean              =   4.5647972351442E-03
(PID.TID 0000.0001) %MON forcing_fv_sd                =   1.2663731472030E-01
(PID.TID 0000.0001) %MON forcing_fv_del2              =   1.1818464203876E-04
(PID.TID 0000.0001) %MON trAdv_CFL_u_max              =   9.7659070511212E-02
(PID.TID 0000.0001) %MON trAdv_CFL_v_max              =   7.4268394977653E-02
(PID.TID 0000.0001) %MON trAdv_CFL_w_max              =   2.4466874164069E-01
(PID.TID 0000.0001) %MON advcfl_uvel_max              =   1.0069159518659E-01
(PID.TID 0000.0001) %MON advcfl_vvel_max              =   7.2277347694355E-02
(PID.TID 0000.0001) %MON advcfl_wvel_max              =   2.4674274281140E-01
(PID.TID 0000.0001) %MON advcfl_W_hf_max              =   2.4773758164244E-01
(PID.TID 0000.0001) %MON pe_b_mean                    =   4.3770500927387E-04
(PID.TID 0000.0001) %MON ke_max                       =   5.0158998625648E-01
(PID.TID 0000.0001) %MON ke_mean                      =   5.1314617619252E-04
(PID.TID 0000.0001) %MON ke_vol                       =   1.3349972773863E+18
(PID.TID 0000.0001) %MON vort_r_min                   =  -3.6863076728176E-05
(PID.TID 0000.0001) %MON vort_r_max                   =   3.5049058242072E-05
(PID.TID 0000.0001) %MON vort_a_mean                  =  -1.9727864647440E-05
(PID.TID 0000.0001) %MON vort_a_sd                    =   7.4543361617821E-05
(PID.TID 0000.0001) %MON vort_p_mean                  =  -2.1760536779432E-05
(PID.TID 0000.0001) %MON vort_p_sd                    =   9.7240606976311E-05
(PID.TID 0000.0001) %MON surfExpan_theta_mean         =  -6.5180891473847E-08
(PID.TID 0000.0001) %MON surfExpan_salt_mean          =   4.6568030129933E-08
(PID.TID 0000.0001) // =======================================================
(PID.TID 0000.0001) // End MONITOR dynamic field statistics
(PID.TID 0000.0001) // =======================================================
(PID.TID 0000.0001) // =======================================================
(PID.TID 0000.0001) // Begin MONITOR SEAICE statistics
(PID.TID 0000.0001) // =======================================================
(PID.TID 0000.0001) %MON seaice_tsnumber              =                    10
(PID.TID 0000.0001) %MON seaice_time_sec              =   3.6000000000000E+04
(PID.TID 0000.0001) %MON seaice_uice_max              =   4.0000000000000E-01
(PID.TID 0000.0001) %MON seaice_uice_min              =  -4.0000000000000E-01
(PID.TID 0000.0001) %MON seaice_uice_mean             =   6.6347617043481E-03
(PID.TID 0000.0001) %MON seaice_uice_sd               =   1.9495565597955E-01
(PID.TID 0000.0001) %MON seaice_uice_del2             =   2.0973602513938E-04
(PID.TID 0000.0001) %MON seaice_vice_max              =   4.0000000000000E-01
(PID.TID 0000.0001) %MON seaice_vice_min              =  -4.0000000000000E-01
(PID.TID 0000.0001) %MON seaice_vice_mean             =  -1.2372556538491E-02
(PID.TID 0000.0001) %MON seaice_vice_sd               =   2.0582706551998E-01
(PID.TID 0000.0001) %MON seaice_vice_del2             =   2.1850682952315E-04
(PID.TID 0000.0001) %MON seaice_area_max              =   9.5000000000000E-01
(PID.TID 0000.0001) %MON seaice_area_min              =   0.0000000000000E+00
(PID.TID 0000.0001) %MON seaice_area_mean             =   3.9253332348862E-02
(PID.TID 0000.0001) %MON seaice_area_sd               =   1.7927593266423E-01
(PID.TID 0000.0001) %MON seaice_area_del2             =   2.6762504639901E-04
(PID.TID 0000.0001) %MON seaice_heff_max              =   3.8249200726035E+00
(PID.TID 0000.0001) %MON seaice_heff_min              =   0.0000000000000E+00
(PID.TID 0000.0001) %MON seaice_heff_mean             =   5.3452648642154E-02
(PID.TID 0000.0001) %MON seaice_heff_sd               =   3.0500312191032E-01
(PID.TID 0000.0001) %MON seaice_heff_del2             =   2.8802650418817E-04
(PID.TID 0000.0001) %MON seaice_hsnow_max             =   9.4579822512760E-01
(PID.TID 0000.0001) %MON seaice_hsnow_min             =  -2.1805633827511E-05
(PID.TID 0000.0001) %MON seaice_hsnow_mean            =   5.2477509430982E-03
(PID.TID 0000.0001) %MON seaice_hsnow_sd              =   3.1458146231665E-02
(PID.TID 0000.0001) %MON seaice_hsnow_del2            =   5.2612340564395E-05
(PID.TID 0000.0001) // =======================================================
(PID.TID 0000.0001) // End MONITOR SEAICE statistics
(PID.TID 0000.0001) // =======================================================
(PID.TID 0000.0001) // =======================================================
(PID.TID 0000.0001) // Begin MONITOR EXF statistics
(PID.TID 0000.0001) // =======================================================
(PID.TID 0000.0001) %MON exf_tsnumber                 =                    10
(PID.TID 0000.0001) %MON exf_time_sec                 =   3.6000000000000E+04
(PID.TID 0000.0001) %MON exf_ustress_max              =   1.2074116520638E+00
(PID.TID 0000.0001) %MON exf_ustress_min              =  -1.8952681996737E+00
(PID.TID 0000.0001) %MON exf_ustress_mean             =   1.3202136656582E-02
(PID.TID 0000.0001) %MON exf_ustress_sd               =   1.0374821952259E-01
(PID.TID 0000.0001) %MON exf_ustress_del2             =   1.0337834287530E-04
(PID.TID 0000.0001) %MON exf_vstress_max              =   1.4434877354526E+00
(PID.TID 0000.0001) %MON exf_vstress_min              =  -6.0578129192193E-01
(PID.TID 0000.0001) %MON exf_vstress_mean             =   3.4579342665028E-03
(PID.TID 0000.0001) %MON exf_vstress_sd               =   1.1720942073125E-01
(PID.TID 0000.0001) %MON exf_vstress_del2             =   9.2357547528790E-05
(PID.TID 0000.0001) %MON exf_hflux_max                =   1.2067637775110E+03
(PID.TID 0000.0001) %MON exf_hflux_min                =  -7.0475531197671E+02
(PID.TID 0000.0001) %MON exf_hflux_mean               =  -1.4281873944198E+01
(PID.TID 0000.0001) %MON exf_hflux_sd                 =   2.6490379687795E+02
(PID.TID 0000.0001) %MON exf_hflux_del2               =   4.4765468518511E-01
(PID.TID 0000.0001) %MON exf_sflux_max                =   2.1188041251106E-07
(PID.TID 0000.0001) %MON exf_sflux_min                =  -2.4492436356940E-06
(PID.TID 0000.0001) %MON exf_sflux_mean               =   5.6667953338156E-09
(PID.TID 0000.0001) %MON exf_sflux_sd                 =   9.0598800360950E-08
(PID.TID 0000.0001) %MON exf_sflux_del2               =   2.4558964794373E-10
(PID.TID 0000.0001) %MON exf_wspeed_max               =   2.1243844985962E+01
(PID.TID 0000.0001) %MON exf_wspeed_min               =   2.5475496798754E-01
(PID.TID 0000.0001) %MON exf_wspeed_mean              =   6.9144613427037E+00
(PID.TID 0000.0001) %MON exf_wspeed_sd                =   3.1167889005479E+00
(PID.TID 0000.0001) %MON exf_wspeed_del2              =   1.1984607557512E-02
(PID.TID 0000.0001) %MON exf_atemp_max                =   3.0393725687663E+02
(PID.TID 0000.0001) %MON exf_atemp_min                =   2.3203909530640E+02
(PID.TID 0000.0001) %MON exf_atemp_mean               =   2.8910024620259E+02
(PID.TID 0000.0001) %MON exf_atemp_sd                 =   1.2277045694197E+01
(PID.TID 0000.0001) %MON exf_atemp_del2               =   2.6443953492376E-02
(PID.TID 0000.0001) %MON exf_aqh_max                  =   2.1875557489693E-02
(PID.TID 0000.0001) %MON exf_aqh_min                  =   1.0122892975536E-04
(PID.TID 0000.0001) %MON exf_aqh_mean                 =   1.0850165223773E-02
(PID.TID 0000.0001) %MON exf_aqh_sd                   =   5.5889574503682E-03
(PID.TID 0000.0001) %MON exf_aqh_del2                 =   1.4596077997482E-05
(PID.TID 0000.0001) %MON exf_lwflux_max               =   2.2843347647246E+02
(PID.TID 0000.0001) %MON exf_lwflux_min               =  -2.2857138533999E+01
(PID.TID 0000.0001) %MON exf_lwflux_mean              =   4.9058291105173E+01
(PID.TID 0000.0001) %MON exf_lwflux_sd                =   2.9394451819018E+01
(PID.TID 0000.0001) %MON exf_lwflux_del2              =   1.0209089241227E-01
(PID.TID 0000.0001) %MON exf_evap_max                 =   2.3236825717917E-07
(PID.TID 0000.0001) %MON exf_evap_min                 =  -3.9576347135494E-08
(PID.TID 0000.0001) %MON exf_evap_mean                =   4.5121252220714E-08
(PID.TID 0000.0001) %MON exf_evap_sd                  =   2.8784536721095E-08
(PID.TID 0000.0001) %MON exf_evap_del2                =   7.2302029238271E-11
(PID.TID 0000.0001) %MON exf_precip_max               =   2.4840526994622E-06
(PID.TID 0000.0001) %MON exf_precip_min               =  -1.4415323157380E-08
(PID.TID 0000.0001) %MON exf_precip_mean              =   3.6412022649157E-08
(PID.TID 0000.0001) %MON exf_precip_sd                =   7.9238150433592E-08
(PID.TID 0000.0001) %MON exf_precip_del2              =   2.3841228175416E-10
(PID.TID 0000.0001) %MON exf_swflux_max               =   2.4874116405424E+01
(PID.TID 0000.0001) %MON exf_swflux_min               =  -7.9494808136041E+02
(PID.TID 0000.0001) %MON exf_swflux_mean              =  -2.0632647065837E+02
(PID.TID 0000.0001) %MON exf_swflux_sd                =   2.1277361317131E+02
(PID.TID 0000.0001) %MON exf_swflux_del2              =   4.1329876479009E-01
(PID.TID 0000.0001) %MON exf_swdown_max               =   8.5728639729818E+02
(PID.TID 0000.0001) %MON exf_swdown_min               =  -3.3513142267863E+01
(PID.TID 0000.0001) %MON exf_swdown_mean              =   2.2376508338795E+02
(PID.TID 0000.0001) %MON exf_swdown_sd                =   2.2987091452078E+02
(PID.TID 0000.0001) %MON exf_swdown_del2              =   4.4847337214265E-01
(PID.TID 0000.0001) %MON exf_lwdown_max               =   4.6077553304036E+02
(PID.TID 0000.0001) %MON exf_lwdown_min               =   7.1175722757975E+01
(PID.TID 0000.0001) %MON exf_lwdown_mean              =   3.6264572389002E+02
(PID.TID 0000.0001) %MON exf_lwdown_sd                =   6.6061775045839E+01
(PID.TID 0000.0001) %MON exf_lwdown_del2              =   4.8538253108700E-01
(PID.TID 0000.0001) %MON exf_runoff_max               =   2.0370805505228E-06
(PID.TID 0000.0001) %MON exf_runoff_min               =   0.0000000000000E+00
(PID.TID 0000.0001) %MON exf_runoff_mean              =   3.0424342377412E-09
(PID.TID 0000.0001) %MON exf_runoff_sd                =   2.3964668899102E-08
(PID.TID 0000.0001) %MON exf_runoff_del2              =   1.8124761992863E-11
(PID.TID 0000.0001) // =======================================================
(PID.TID 0000.0001) // End MONITOR EXF statistics
(PID.TID 0000.0001) // =======================================================
 SEAICE_LSR: Residual Initial ipass,Uice,Vice=    1  1.06402002E-01  1.40602050E-01
 SEAICE_LSR: Residual FrDrift U_fd,V_fd=  8.10387131E+01  6.68431883E+01
 SEAICE_LSR (ipass=   1) iters,dU,Resid=   342  1.97953665E-04  1.82903015E-03
 SEAICE_LSR (ipass=   1) iters,dV,Resid=   342  1.20972393E-04  1.30603452E-03
 SEAICE_LSR: Residual Initial ipass,Uice,Vice=    2  1.67784669E-01  3.44449493E-01
 SEAICE_LSR: Residual FrDrift U_fd,V_fd=  7.88896059E+01  6.24292016E+01
 SEAICE_LSR (ipass=   2) iters,dU,Resid=    96  1.00693353E-04  9.86869993E-04
 SEAICE_LSR (ipass=   2) iters,dV,Resid=    96  1.95904016E-04  1.88160533E-03
 cg2d: Sum(rhs),rhsMax =   3.38378501983227E+00  3.86851698484791E-01
 cg2d: Sum(rhs),rhsMax =   3.42809927957908E+00  3.75140117582570E-01
(PID.TID 0000.0001)      cg2d_init_res =   3.29355991338461E-01
(PID.TID 0000.0001)      cg2d_iters(min,last) =      -1      87
(PID.TID 0000.0001)      cg2d_last_res =   6.82744942039165E-06
(PID.TID 0000.0001) // =======================================================
(PID.TID 0000.0001) // Begin MONITOR dynamic field statistics
(PID.TID 0000.0001) // =======================================================
(PID.TID 0000.0001) %MON time_tsnumber                =                    12
(PID.TID 0000.0001) %MON time_secondsf                =   4.3200000000000E+04
(PID.TID 0000.0001) %MON dynstat_eta_max              =   1.1234295519409E+00
(PID.TID 0000.0001) %MON dynstat_eta_min              =  -4.4527247531184E+00
(PID.TID 0000.0001) %MON dynstat_eta_mean             =  -1.7350676613717E-03
(PID.TID 0000.0001) %MON dynstat_eta_sd               =   7.4450264890174E-01
(PID.TID 0000.0001) %MON dynstat_eta_del2             =   2.7592087477974E-04
(PID.TID 0000.0001) %MON dynstat_uvel_max             =   1.1293154466529E+00
(PID.TID 0000.0001) %MON dynstat_uvel_min             =  -6.4997797553635E-01
(PID.TID 0000.0001) %MON dynstat_uvel_mean            =   1.4904771371267E-03
(PID.TID 0000.0001) %MON dynstat_uvel_sd              =   2.1828775634334E-02
(PID.TID 0000.0001) %MON dynstat_uvel_del2            =   1.5281331763683E-05
(PID.TID 0000.0001) %MON dynstat_vvel_max             =   1.0133575325377E+00
(PID.TID 0000.0001) %MON dynstat_vvel_min             =  -9.3156932296250E-01
(PID.TID 0000.0001) %MON dynstat_vvel_mean            =   1.2062806355808E-03
(PID.TID 0000.0001) %MON dynstat_vvel_sd              =   2.4084083373496E-02
(PID.TID 0000.0001) %MON dynstat_vvel_del2            =   1.6320101547763E-05
(PID.TID 0000.0001) %MON dynstat_wvel_max             =   7.6676897036059E-04
(PID.TID 0000.0001) %MON dynstat_wvel_min             =  -1.1785099088786E-03
(PID.TID 0000.0001) %MON dynstat_wvel_mean            =  -3.3445274938697E-09
(PID.TID 0000.0001) %MON dynstat_wvel_sd              =   3.0180886549844E-05
(PID.TID 0000.0001) %MON dynstat_wvel_del2            =   3.5513424279250E-08
(PID.TID 0000.0001) %MON dynstat_theta_max            =   3.2558218953746E+01
(PID.TID 0000.0001) %MON dynstat_theta_min            =  -2.0422711830037E+00
(PID.TID 0000.0001) %MON dynstat_theta_mean           =   3.5906355566968E+00
(PID.TID 0000.0001) %MON dynstat_theta_sd             =   4.4366785482509E+00
(PID.TID 0000.0001) %MON dynstat_theta_del2           =   1.0783135928130E-04
(PID.TID 0000.0001) %MON dynstat_salt_max             =   4.0711507137916E+01
(PID.TID 0000.0001) %MON dynstat_salt_min             =   1.7455123161428E+01
(PID.TID 0000.0001) %MON dynstat_salt_mean            =   3.4725690650833E+01
(PID.TID 0000.0001) %MON dynstat_salt_sd              =   3.7887356403238E-01
(PID.TID 0000.0001) %MON dynstat_salt_del2            =   2.6651731087248E-05
(PID.TID 0000.0001) %MON dynstat_sst_max              =   3.2558212561499E+01
(PID.TID 0000.0001) %MON dynstat_sst_min              =  -1.9610926505936E+00
(PID.TID 0000.0001) %MON dynstat_sst_mean             =   1.8518515841675E+01
(PID.TID 0000.0001) %MON dynstat_sst_sd               =   1.0084489199077E+01
(PID.TID 0000.0001) %MON dynstat_sst_del2             =   8.8455524568561E-04
(PID.TID 0000.0001) %MON dynstat_sss_max              =   3.9711446148083E+01
(PID.TID 0000.0001) %MON dynstat_sss_min              =   1.7455123161428E+01
(PID.TID 0000.0001) %MON dynstat_sss_mean             =   3.4720958853460E+01
(PID.TID 0000.0001) %MON dynstat_sss_sd               =   1.2189236001345E+00
(PID.TID 0000.0001) %MON dynstat_sss_del2             =   3.9508747514501E-04
(PID.TID 0000.0001) %MON forcing_qnet_max             =   9.5726783316698E+02
(PID.TID 0000.0001) %MON forcing_qnet_min             =  -6.4273477745585E+02
(PID.TID 0000.0001) %MON forcing_qnet_mean            =  -2.5864127351872E+01
(PID.TID 0000.0001) %MON forcing_qnet_sd              =   2.1654547020606E+02
(PID.TID 0000.0001) %MON forcing_qnet_del2            =   1.5010393714854E-01
(PID.TID 0000.0001) %MON forcing_qsw_max              =   2.4953067432983E+01
(PID.TID 0000.0001) %MON forcing_qsw_min              =  -7.2359700680659E+02
(PID.TID 0000.0001) %MON forcing_qsw_mean             =  -2.0155491072663E+02
(PID.TID 0000.0001) %MON forcing_qsw_sd               =   1.8541240639579E+02
(PID.TID 0000.0001) %MON forcing_qsw_del2             =   8.2716849753187E-02
(PID.TID 0000.0001) %MON forcing_empmr_max            =   2.1285949687176E-03
(PID.TID 0000.0001) %MON forcing_empmr_min            =  -2.2027960986991E-03
(PID.TID 0000.0001) %MON forcing_empmr_mean           =   6.4109058291576E-06
(PID.TID 0000.0001) %MON forcing_empmr_sd             =   1.0449213254214E-04
(PID.TID 0000.0001) %MON forcing_empmr_del2           =   4.5431429829319E-07
(PID.TID 0000.0001) %MON forcing_fu_max               =   1.1425683343538E+00
(PID.TID 0000.0001) %MON forcing_fu_min               =  -1.6083243823265E+00
(PID.TID 0000.0001) %MON forcing_fu_mean              =   1.2806992713834E-02
(PID.TID 0000.0001) %MON forcing_fu_sd                =   1.0791599326511E-01
(PID.TID 0000.0001) %MON forcing_fu_del2              =   1.0731940802771E-04
(PID.TID 0000.0001) %MON forcing_fv_max               =   1.6613299291645E+00
(PID.TID 0000.0001) %MON forcing_fv_min               =  -7.1021046970403E-01
(PID.TID 0000.0001) %MON forcing_fv_mean              =   4.6052376154750E-03
(PID.TID 0000.0001) %MON forcing_fv_sd                =   1.2385992364781E-01
(PID.TID 0000.0001) %MON forcing_fv_del2              =   1.1160150374458E-04
(PID.TID 0000.0001) %MON trAdv_CFL_u_max              =   1.0143496550451E-01
(PID.TID 0000.0001) %MON trAdv_CFL_v_max              =   7.7790422891795E-02
(PID.TID 0000.0001) %MON trAdv_CFL_w_max              =   2.3271748551937E-01
(PID.TID 0000.0001) %MON advcfl_uvel_max              =   1.0445473209275E-01
(PID.TID 0000.0001) %MON advcfl_vvel_max              =   7.3195407607488E-02
(PID.TID 0000.0001) %MON advcfl_wvel_max              =   2.3483741747011E-01
(PID.TID 0000.0001) %MON advcfl_W_hf_max              =   2.3578635282032E-01
(PID.TID 0000.0001) %MON pe_b_mean                    =   4.3722520226206E-04
(PID.TID 0000.0001) %MON ke_max                       =   5.1466421508986E-01
(PID.TID 0000.0001) %MON ke_mean                      =   5.1123326155331E-04
(PID.TID 0000.0001) %MON ke_vol                       =   1.3349972637909E+18
(PID.TID 0000.0001) %MON vort_r_min                   =  -3.8158541538371E-05
(PID.TID 0000.0001) %MON vort_r_max                   =   3.4845489169040E-05
(PID.TID 0000.0001) %MON vort_a_mean                  =  -1.9727864647440E-05
(PID.TID 0000.0001) %MON vort_a_sd                    =   7.4543353535471E-05
(PID.TID 0000.0001) %MON vort_p_mean                  =  -2.1760536909057E-05
(PID.TID 0000.0001) %MON vort_p_sd                    =   9.7240812406100E-05
(PID.TID 0000.0001) %MON surfExpan_theta_mean         =  -6.8359091299697E-08
(PID.TID 0000.0001) %MON surfExpan_salt_mean          =   2.2258036122375E-08
(PID.TID 0000.0001) // =======================================================
(PID.TID 0000.0001) // End MONITOR dynamic field statistics
(PID.TID 0000.0001) // =======================================================
(PID.TID 0000.0001) // =======================================================
(PID.TID 0000.0001) // Begin MONITOR SEAICE statistics
(PID.TID 0000.0001) // =======================================================
(PID.TID 0000.0001) %MON seaice_tsnumber              =                    12
(PID.TID 0000.0001) %MON seaice_time_sec              =   4.3200000000000E+04
(PID.TID 0000.0001) %MON seaice_uice_max              =   4.0000000000000E-01
(PID.TID 0000.0001) %MON seaice_uice_min              =  -4.0000000000000E-01
(PID.TID 0000.0001) %MON seaice_uice_mean             =   6.1408139613054E-03
(PID.TID 0000.0001) %MON seaice_uice_sd               =   1.9101334807302E-01
(PID.TID 0000.0001) %MON seaice_uice_del2             =   2.0388297590193E-04
(PID.TID 0000.0001) %MON seaice_vice_max              =   4.0000000000000E-01
(PID.TID 0000.0001) %MON seaice_vice_min              =  -4.0000000000000E-01
(PID.TID 0000.0001) %MON seaice_vice_mean             =  -1.0595793978839E-02
(PID.TID 0000.0001) %MON seaice_vice_sd               =   2.0471659423253E-01
(PID.TID 0000.0001) %MON seaice_vice_del2             =   2.1285410036919E-04
(PID.TID 0000.0001) %MON seaice_area_max              =   9.5000000000000E-01
(PID.TID 0000.0001) %MON seaice_area_min              =   0.0000000000000E+00
(PID.TID 0000.0001) %MON seaice_area_mean             =   3.9226706980531E-02
(PID.TID 0000.0001) %MON seaice_area_sd               =   1.7920914615356E-01
(PID.TID 0000.0001) %MON seaice_area_del2             =   2.6524905171866E-04
(PID.TID 0000.0001) %MON seaice_heff_max              =   3.8256492844438E+00
(PID.TID 0000.0001) %MON seaice_heff_min              =   0.0000000000000E+00
(PID.TID 0000.0001) %MON seaice_heff_mean             =   5.3463837436320E-02
(PID.TID 0000.0001) %MON seaice_heff_sd               =   3.0510978232463E-01
(PID.TID 0000.0001) %MON seaice_heff_del2             =   2.8746260982850E-04
(PID.TID 0000.0001) %MON seaice_hsnow_max             =   9.6315644933804E-01
(PID.TID 0000.0001) %MON seaice_hsnow_min             =  -2.3233907894384E-05
(PID.TID 0000.0001) %MON seaice_hsnow_mean            =   5.2466819823959E-03
(PID.TID 0000.0001) %MON seaice_hsnow_sd              =   3.1458164194512E-02
(PID.TID 0000.0001) %MON seaice_hsnow_del2            =   5.2224071639834E-05
(PID.TID 0000.0001) // =======================================================
(PID.TID 0000.0001) // End MONITOR SEAICE statistics
(PID.TID 0000.0001) // =======================================================
(PID.TID 0000.0001) // =======================================================
(PID.TID 0000.0001) // Begin MONITOR EXF statistics
(PID.TID 0000.0001) // =======================================================
(PID.TID 0000.0001) %MON exf_tsnumber                 =                    12
(PID.TID 0000.0001) %MON exf_time_sec                 =   4.3200000000000E+04
(PID.TID 0000.0001) %MON exf_ustress_max              =   1.1285985390994E+00
(PID.TID 0000.0001) %MON exf_ustress_min              =  -1.7808250880289E+00
(PID.TID 0000.0001) %MON exf_ustress_mean             =   1.3263818614944E-02
(PID.TID 0000.0001) %MON exf_ustress_sd               =   1.0184990155892E-01
(PID.TID 0000.0001) %MON exf_ustress_del2             =   9.7055616940844E-05
(PID.TID 0000.0001) %MON exf_vstress_max              =   1.3483697297834E+00
(PID.TID 0000.0001) %MON exf_vstress_min              =  -5.6032888591290E-01
(PID.TID 0000.0001) %MON exf_vstress_mean             =   3.4656994112630E-03
(PID.TID 0000.0001) %MON exf_vstress_sd               =   1.1583381669761E-01
(PID.TID 0000.0001) %MON exf_vstress_del2             =   8.6605822556974E-05
(PID.TID 0000.0001) %MON exf_hflux_max                =   1.3504714543131E+03
(PID.TID 0000.0001) %MON exf_hflux_min                =  -6.0452174965520E+02
(PID.TID 0000.0001) %MON exf_hflux_mean               =  -7.9602136994943E+00
(PID.TID 0000.0001) %MON exf_hflux_sd                 =   2.3009373600891E+02
(PID.TID 0000.0001) %MON exf_hflux_del2               =   4.0988839031655E-01
(PID.TID 0000.0001) %MON exf_sflux_max                =   2.1988137191794E-07
(PID.TID 0000.0001) %MON exf_sflux_min                =  -2.2109835991034E-06
(PID.TID 0000.0001) %MON exf_sflux_mean               =   7.1864940027117E-09
(PID.TID 0000.0001) %MON exf_sflux_sd                 =   8.2515053552905E-08
(PID.TID 0000.0001) %MON exf_sflux_del2               =   2.0026505125650E-10
(PID.TID 0000.0001) %MON exf_wspeed_max               =   2.1079416275024E+01
(PID.TID 0000.0001) %MON exf_wspeed_min               =   2.3203911632299E-01
(PID.TID 0000.0001) %MON exf_wspeed_mean              =   6.9192550104458E+00
(PID.TID 0000.0001) %MON exf_wspeed_sd                =   3.0846304213711E+00
(PID.TID 0000.0001) %MON exf_wspeed_del2              =   1.1877541786858E-02
(PID.TID 0000.0001) %MON exf_atemp_max                =   3.0303329792023E+02
(PID.TID 0000.0001) %MON exf_atemp_min                =   2.3182925643921E+02
(PID.TID 0000.0001) %MON exf_atemp_mean               =   2.8911475339885E+02
(PID.TID 0000.0001) %MON exf_atemp_sd                 =   1.2281957163887E+01
(PID.TID 0000.0001) %MON exf_atemp_del2               =   2.6479590612707E-02
(PID.TID 0000.0001) %MON exf_aqh_max                  =   2.2118325345218E-02
(PID.TID 0000.0001) %MON exf_aqh_min                  =   9.9085405963706E-05
(PID.TID 0000.0001) %MON exf_aqh_mean                 =   1.0861196148658E-02
(PID.TID 0000.0001) %MON exf_aqh_sd                   =   5.6018578063334E-03
(PID.TID 0000.0001) %MON exf_aqh_del2                 =   1.4593692780436E-05
(PID.TID 0000.0001) %MON exf_lwflux_max               =   2.2882163989910E+02
(PID.TID 0000.0001) %MON exf_lwflux_min               =  -2.2795931708418E+01
(PID.TID 0000.0001) %MON exf_lwflux_mean              =   4.9362524109770E+01
(PID.TID 0000.0001) %MON exf_lwflux_sd                =   2.9051759838784E+01
(PID.TID 0000.0001) %MON exf_lwflux_del2              =   1.0199058680906E-01
(PID.TID 0000.0001) %MON exf_evap_max                 =   2.4032588901244E-07
(PID.TID 0000.0001) %MON exf_evap_min                 =  -3.7050464557159E-08
(PID.TID 0000.0001) %MON exf_evap_mean                =   4.5238463976601E-08
(PID.TID 0000.0001) %MON exf_evap_sd                  =   2.8753711151761E-08
(PID.TID 0000.0001) %MON exf_evap_del2                =   7.1978138450767E-11
(PID.TID 0000.0001) %MON exf_precip_max               =   1.4875472345022E-06
(PID.TID 0000.0001) %MON exf_precip_min               =  -1.4453163110772E-08
(PID.TID 0000.0001) %MON exf_precip_mean              =   3.5010440161775E-08
(PID.TID 0000.0001) %MON exf_precip_sd                =   7.0292750531483E-08
(PID.TID 0000.0001) %MON exf_precip_del2              =   1.9221764441863E-10
(PID.TID 0000.0001) %MON exf_swflux_max               =   2.5032093954135E+01
(PID.TID 0000.0001) %MON exf_swflux_min               =  -7.1875459581929E+02
(PID.TID 0000.0001) %MON exf_swflux_mean              =  -2.0039346855174E+02
(PID.TID 0000.0001) %MON exf_swflux_sd                =   1.7270581374762E+02
(PID.TID 0000.0001) %MON exf_swflux_del2              =   3.7081528369696E-01
(PID.TID 0000.0001) %MON exf_swdown_max               =   7.7581167602539E+02
(PID.TID 0000.0001) %MON exf_swdown_min               =  -3.3552480697632E+01
(PID.TID 0000.0001) %MON exf_swdown_mean              =   2.1730837017869E+02
(PID.TID 0000.0001) %MON exf_swdown_sd                =   1.8652724338727E+02
(PID.TID 0000.0001) %MON exf_swdown_del2              =   4.0235712376949E-01
(PID.TID 0000.0001) %MON exf_lwdown_max               =   4.5857446289062E+02
(PID.TID 0000.0001) %MON exf_lwdown_min               =   7.0775566101074E+01
(PID.TID 0000.0001) %MON exf_lwdown_mean              =   3.6234494671152E+02
(PID.TID 0000.0001) %MON exf_lwdown_sd                =   6.6068385349748E+01
(PID.TID 0000.0001) %MON exf_lwdown_del2              =   4.8450395586737E-01
(PID.TID 0000.0001) %MON exf_runoff_max               =   2.0402347093207E-06
(PID.TID 0000.0001) %MON exf_runoff_min               =   0.0000000000000E+00
(PID.TID 0000.0001) %MON exf_runoff_mean              =   3.0415298121149E-09
(PID.TID 0000.0001) %MON exf_runoff_sd                =   2.3993937241950E-08
(PID.TID 0000.0001) %MON exf_runoff_del2              =   1.8135169135855E-11
(PID.TID 0000.0001) // =======================================================
(PID.TID 0000.0001) // End MONITOR EXF statistics
(PID.TID 0000.0001) // =======================================================
 SEAICE_LSR: Residual Initial ipass,Uice,Vice=    1  1.01770869E-01  1.37510248E-01
 SEAICE_LSR: Residual FrDrift U_fd,V_fd=  7.88348001E+01  6.76892212E+01
 SEAICE_LSR (ipass=   1) iters,dU,Resid=   346  1.97492004E-04  2.01943250E-03
 SEAICE_LSR (ipass=   1) iters,dV,Resid=   346  1.08090497E-04  1.22040427E-03
 SEAICE_LSR: Residual Initial ipass,Uice,Vice=    2  2.02058567E-01  2.66259570E-01
 SEAICE_LSR: Residual FrDrift U_fd,V_fd=  7.60779035E+01  6.14544680E+01
 SEAICE_LSR (ipass=   2) iters,dU,Resid=    94  6.72428582E-05  9.06466373E-04
 SEAICE_LSR (ipass=   2) iters,dV,Resid=    94  1.97123373E-04  2.28888264E-03
 cg2d: Sum(rhs),rhsMax =   3.47723722789043E+00  3.64810058484309E-01
 cg2d: Sum(rhs),rhsMax =   3.53188573397623E+00  3.54890737109656E-01
(PID.TID 0000.0001)      cg2d_init_res =   3.29196181862138E-01
(PID.TID 0000.0001)      cg2d_iters(min,last) =      -1      89
(PID.TID 0000.0001)      cg2d_last_res =   6.85387818942220E-06
(PID.TID 0000.0001) // =======================================================
(PID.TID 0000.0001) // Begin MONITOR dynamic field statistics
(PID.TID 0000.0001) // =======================================================
(PID.TID 0000.0001) %MON time_tsnumber                =                    14
(PID.TID 0000.0001) %MON time_secondsf                =   5.0400000000000E+04
(PID.TID 0000.0001) %MON dynstat_eta_max              =   1.1378403549764E+00
(PID.TID 0000.0001) %MON dynstat_eta_min              =  -4.3556621603350E+00
(PID.TID 0000.0001) %MON dynstat_eta_mean             =  -1.7875972137640E-03
(PID.TID 0000.0001) %MON dynstat_eta_sd               =   7.4433459632987E-01
(PID.TID 0000.0001) %MON dynstat_eta_del2             =   2.7624113251513E-04
(PID.TID 0000.0001) %MON dynstat_uvel_max             =   1.1544224348781E+00
(PID.TID 0000.0001) %MON dynstat_uvel_min             =  -6.5340194877387E-01
(PID.TID 0000.0001) %MON dynstat_uvel_mean            =   1.4706504306378E-03
(PID.TID 0000.0001) %MON dynstat_uvel_sd              =   2.1804628890670E-02
(PID.TID 0000.0001) %MON dynstat_uvel_del2            =   1.5006126245778E-05
(PID.TID 0000.0001) %MON dynstat_vvel_max             =   1.0275308986658E+00
(PID.TID 0000.0001) %MON dynstat_vvel_min             =  -9.2787950983119E-01
(PID.TID 0000.0001) %MON dynstat_vvel_mean            =   1.2215498288985E-03
(PID.TID 0000.0001) %MON dynstat_vvel_sd              =   2.4068851604419E-02
(PID.TID 0000.0001) %MON dynstat_vvel_del2            =   1.6001342139868E-05
(PID.TID 0000.0001) %MON dynstat_wvel_max             =   8.3060162959691E-04
(PID.TID 0000.0001) %MON dynstat_wvel_min             =  -1.0943830060045E-03
(PID.TID 0000.0001) %MON dynstat_wvel_mean            =   8.1342132349224E-11
(PID.TID 0000.0001) %MON dynstat_wvel_sd              =   2.9952882120030E-05
(PID.TID 0000.0001) %MON dynstat_wvel_del2            =   3.5049700625441E-08
(PID.TID 0000.0001) %MON dynstat_theta_max            =   3.2575701180897E+01
(PID.TID 0000.0001) %MON dynstat_theta_min            =  -2.0423060449117E+00
(PID.TID 0000.0001) %MON dynstat_theta_mean           =   3.5906452847179E+00
(PID.TID 0000.0001) %MON dynstat_theta_sd             =   4.4367066317201E+00
(PID.TID 0000.0001) %MON dynstat_theta_del2           =   1.0758501068180E-04
(PID.TID 0000.0001) %MON dynstat_salt_max             =   4.0711503939405E+01
(PID.TID 0000.0001) %MON dynstat_salt_min             =   1.7456470466600E+01
(PID.TID 0000.0001) %MON dynstat_salt_mean            =   3.4725691135718E+01
(PID.TID 0000.0001) %MON dynstat_salt_sd              =   3.7887244817579E-01
(PID.TID 0000.0001) %MON dynstat_salt_del2            =   2.6548972398664E-05
(PID.TID 0000.0001) %MON dynstat_sst_max              =   3.2575701180897E+01
(PID.TID 0000.0001) %MON dynstat_sst_min              =  -1.9611032573708E+00
(PID.TID 0000.0001) %MON dynstat_sst_mean             =   1.8519514956693E+01
(PID.TID 0000.0001) %MON dynstat_sst_sd               =   1.0084614525777E+01
(PID.TID 0000.0001) %MON dynstat_sst_del2             =   8.8715054414115E-04
(PID.TID 0000.0001) %MON dynstat_sss_max              =   3.9711410777788E+01
(PID.TID 0000.0001) %MON dynstat_sss_min              =   1.7456470466600E+01
(PID.TID 0000.0001) %MON dynstat_sss_mean             =   3.4721034735647E+01
(PID.TID 0000.0001) %MON dynstat_sss_sd               =   1.2189617247761E+00
(PID.TID 0000.0001) %MON dynstat_sss_del2             =   3.9517971495685E-04
(PID.TID 0000.0001) %MON forcing_qnet_max             =   9.7956917088196E+02
(PID.TID 0000.0001) %MON forcing_qnet_min             =  -6.6129003508359E+02
(PID.TID 0000.0001) %MON forcing_qnet_mean            =  -1.9551533760672E+01
(PID.TID 0000.0001) %MON forcing_qnet_sd              =   2.0652325846594E+02
(PID.TID 0000.0001) %MON forcing_qnet_del2            =   1.4949971506934E-01
(PID.TID 0000.0001) %MON forcing_qsw_max              =   2.5050994118677E+01
(PID.TID 0000.0001) %MON forcing_qsw_min              =  -7.4520086912981E+02
(PID.TID 0000.0001) %MON forcing_qsw_mean             =  -1.9575233350353E+02
(PID.TID 0000.0001) %MON forcing_qsw_sd               =   1.7686273885400E+02
(PID.TID 0000.0001) %MON forcing_qsw_del2             =   8.1220751041913E-02
(PID.TID 0000.0001) %MON forcing_empmr_max            =   2.0847497635749E-03
(PID.TID 0000.0001) %MON forcing_empmr_min            =  -2.2191312187708E-03
(PID.TID 0000.0001) %MON forcing_empmr_mean           =   7.9059523553742E-06
(PID.TID 0000.0001) %MON forcing_empmr_sd             =   1.0002031254806E-04
(PID.TID 0000.0001) %MON forcing_empmr_del2           =   4.4023033103362E-07
(PID.TID 0000.0001) %MON forcing_fu_max               =   1.0686699412401E+00
(PID.TID 0000.0001) %MON forcing_fu_min               =  -1.3955298120631E+00
(PID.TID 0000.0001) %MON forcing_fu_mean              =   1.2724183306880E-02
(PID.TID 0000.0001) %MON forcing_fu_sd                =   1.0754468353090E-01
(PID.TID 0000.0001) %MON forcing_fu_del2              =   1.0798126622428E-04
(PID.TID 0000.0001) %MON forcing_fv_max               =   1.7177393557591E+00
(PID.TID 0000.0001) %MON forcing_fv_min               =  -6.6063877593625E-01
(PID.TID 0000.0001) %MON forcing_fv_mean              =   4.6567764342559E-03
(PID.TID 0000.0001) %MON forcing_fv_sd                =   1.2355739436182E-01
(PID.TID 0000.0001) %MON forcing_fv_del2              =   1.1072337815387E-04
(PID.TID 0000.0001) %MON trAdv_CFL_u_max              =   1.0375966564061E-01
(PID.TID 0000.0001) %MON trAdv_CFL_v_max              =   7.8287263661041E-02
(PID.TID 0000.0001) %MON trAdv_CFL_w_max              =   2.1846644614507E-01
(PID.TID 0000.0001) %MON advcfl_uvel_max              =   1.0677697406376E-01
(PID.TID 0000.0001) %MON advcfl_vvel_max              =   7.3681405356213E-02
(PID.TID 0000.0001) %MON advcfl_wvel_max              =   2.2064270244518E-01
(PID.TID 0000.0001) %MON advcfl_W_hf_max              =   2.2153532796983E-01
(PID.TID 0000.0001) %MON pe_b_mean                    =   4.3666274711125E-04
(PID.TID 0000.0001) %MON ke_max                       =   5.3200583665795E-01
(PID.TID 0000.0001) %MON ke_mean                      =   5.1036121051224E-04
(PID.TID 0000.0001) %MON ke_vol                       =   1.3349972468571E+18
(PID.TID 0000.0001) %MON vort_r_min                   =  -3.8741565953783E-05
(PID.TID 0000.0001) %MON vort_r_max                   =   3.4566296028112E-05
(PID.TID 0000.0001) %MON vort_a_mean                  =  -1.9727864647440E-05
(PID.TID 0000.0001) %MON vort_a_sd                    =   7.4543346659786E-05
(PID.TID 0000.0001) %MON vort_p_mean                  =  -2.1760537082389E-05
(PID.TID 0000.0001) %MON vort_p_sd                    =   9.7240978488050E-05
(PID.TID 0000.0001) %MON surfExpan_theta_mean         =  -2.0526007470316E-08
(PID.TID 0000.0001) %MON surfExpan_salt_mean          =   1.6135633143905E-08
(PID.TID 0000.0001) // =======================================================
(PID.TID 0000.0001) // End MONITOR dynamic field statistics
(PID.TID 0000.0001) // =======================================================
(PID.TID 0000.0001) // =======================================================
(PID.TID 0000.0001) // Begin MONITOR SEAICE statistics
(PID.TID 0000.0001) // =======================================================
(PID.TID 0000.0001) %MON seaice_tsnumber              =                    14
(PID.TID 0000.0001) %MON seaice_time_sec              =   5.0400000000000E+04
(PID.TID 0000.0001) %MON seaice_uice_max              =   4.0000000000000E-01
(PID.TID 0000.0001) %MON seaice_uice_min              =  -4.0000000000000E-01
(PID.TID 0000.0001) %MON seaice_uice_mean             =   5.0819857507950E-03
(PID.TID 0000.0001) %MON seaice_uice_sd               =   1.8901705854135E-01
(PID.TID 0000.0001) %MON seaice_uice_del2             =   2.0043254609625E-04
(PID.TID 0000.0001) %MON seaice_vice_max              =   4.0000000000000E-01
(PID.TID 0000.0001) %MON seaice_vice_min              =  -4.0000000000000E-01
(PID.TID 0000.0001) %MON seaice_vice_mean             =  -9.7407496961666E-03
(PID.TID 0000.0001) %MON seaice_vice_sd               =   2.0485861058579E-01
(PID.TID 0000.0001) %MON seaice_vice_del2             =   2.1005881192250E-04
(PID.TID 0000.0001) %MON seaice_area_max              =   9.5000000000000E-01
(PID.TID 0000.0001) %MON seaice_area_min              =   0.0000000000000E+00
(PID.TID 0000.0001) %MON seaice_area_mean             =   3.9189444020793E-02
(PID.TID 0000.0001) %MON seaice_area_sd               =   1.7913241369210E-01
(PID.TID 0000.0001) %MON seaice_area_del2             =   2.6546922070491E-04
(PID.TID 0000.0001) %MON seaice_heff_max              =   3.8263887478944E+00
(PID.TID 0000.0001) %MON seaice_heff_min              =   0.0000000000000E+00
(PID.TID 0000.0001) %MON seaice_heff_mean             =   5.3474424838150E-02
(PID.TID 0000.0001) %MON seaice_heff_sd               =   3.0522406344562E-01
(PID.TID 0000.0001) %MON seaice_heff_del2             =   2.8765950782623E-04
(PID.TID 0000.0001) %MON seaice_hsnow_max             =   9.7000519614592E-01
(PID.TID 0000.0001) %MON seaice_hsnow_min             =  -2.2773697923519E-05
(PID.TID 0000.0001) %MON seaice_hsnow_mean            =   5.2451221022100E-03
(PID.TID 0000.0001) %MON seaice_hsnow_sd              =   3.1457688525754E-02
(PID.TID 0000.0001) %MON seaice_hsnow_del2            =   5.2045955024149E-05
(PID.TID 0000.0001) // =======================================================
(PID.TID 0000.0001) // End MONITOR SEAICE statistics
(PID.TID 0000.0001) // =======================================================
(PID.TID 0000.0001) // =======================================================
(PID.TID 0000.0001) // Begin MONITOR EXF statistics
(PID.TID 0000.0001) // =======================================================
(PID.TID 0000.0001) %MON exf_tsnumber                 =                    14
(PID.TID 0000.0001) %MON exf_time_sec                 =   5.0400000000000E+04
(PID.TID 0000.0001) %MON exf_ustress_max              =   1.1696798512030E+00
(PID.TID 0000.0001) %MON exf_ustress_min              =  -1.6663819763841E+00
(PID.TID 0000.0001) %MON exf_ustress_mean             =   1.3325500573306E-02
(PID.TID 0000.0001) %MON exf_ustress_sd               =   1.0314162792519E-01
(PID.TID 0000.0001) %MON exf_ustress_del2             =   1.0163171327077E-04
(PID.TID 0000.0001) %MON exf_vstress_max              =   1.2532517241141E+00
(PID.TID 0000.0001) %MON exf_vstress_min              =  -6.1173742512862E-01
(PID.TID 0000.0001) %MON exf_vstress_mean             =   3.4734645560231E-03
(PID.TID 0000.0001) %MON exf_vstress_sd               =   1.1709141674258E-01
(PID.TID 0000.0001) %MON exf_vstress_del2             =   9.2298812552225E-05
(PID.TID 0000.0001) %MON exf_hflux_max                =   1.5084213104020E+03
(PID.TID 0000.0001) %MON exf_hflux_min                =  -6.9064472475369E+02
(PID.TID 0000.0001) %MON exf_hflux_mean               =  -1.4995998524559E+00
(PID.TID 0000.0001) %MON exf_hflux_sd                 =   2.4713766399947E+02
(PID.TID 0000.0001) %MON exf_hflux_del2               =   4.2695868771911E-01
(PID.TID 0000.0001) %MON exf_sflux_max                =   2.3182598201204E-07
(PID.TID 0000.0001) %MON exf_sflux_min                =  -2.2272377080661E-06
(PID.TID 0000.0001) %MON exf_sflux_mean               =   8.7196403794745E-09
(PID.TID 0000.0001) %MON exf_sflux_sd                 =   8.1781443814641E-08
(PID.TID 0000.0001) %MON exf_sflux_del2               =   1.9971476248646E-10
(PID.TID 0000.0001) %MON exf_wspeed_max               =   2.1380131403605E+01
(PID.TID 0000.0001) %MON exf_wspeed_min               =   2.0932326465845E-01
(PID.TID 0000.0001) %MON exf_wspeed_mean              =   6.9240486781879E+00
(PID.TID 0000.0001) %MON exf_wspeed_sd                =   3.1411400242560E+00
(PID.TID 0000.0001) %MON exf_wspeed_del2              =   1.2001146928684E-02
(PID.TID 0000.0001) %MON exf_atemp_max                =   3.0377514273326E+02
(PID.TID 0000.0001) %MON exf_atemp_min                =   2.3161941757202E+02
(PID.TID 0000.0001) %MON exf_atemp_mean               =   2.8912926059510E+02
(PID.TID 0000.0001) %MON exf_atemp_sd                 =   1.2295204585731E+01
(PID.TID 0000.0001) %MON exf_atemp_del2               =   2.6534627203206E-02
(PID.TID 0000.0001) %MON exf_aqh_max                  =   2.2974608776470E-02
(PID.TID 0000.0001) %MON exf_aqh_min                  =   9.6941882172056E-05
(PID.TID 0000.0001) %MON exf_aqh_mean                 =   1.0872227073543E-02
(PID.TID 0000.0001) %MON exf_aqh_sd                   =   5.6213623330013E-03
(PID.TID 0000.0001) %MON exf_aqh_del2                 =   1.4612500073452E-05
(PID.TID 0000.0001) %MON exf_lwflux_max               =   2.2920980221153E+02
(PID.TID 0000.0001) %MON exf_lwflux_min               =  -2.3659336102743E+01
(PID.TID 0000.0001) %MON exf_lwflux_mean              =   4.9659843639640E+01
(PID.TID 0000.0001) %MON exf_lwflux_sd                =   2.9441493056084E+01
(PID.TID 0000.0001) %MON exf_lwflux_del2              =   1.0322582005910E-01
(PID.TID 0000.0001) %MON exf_evap_max                 =   2.5227290948431E-07
(PID.TID 0000.0001) %MON exf_evap_min                 =  -3.6136325173025E-08
(PID.TID 0000.0001) %MON exf_evap_mean                =   4.5369123440355E-08
(PID.TID 0000.0001) %MON exf_evap_sd                  =   2.9270360739398E-08
(PID.TID 0000.0001) %MON exf_evap_del2                =   7.3178849027891E-11
(PID.TID 0000.0001) %MON exf_precip_max               =   1.4843612963962E-06
(PID.TID 0000.0001) %MON exf_precip_min               =  -1.4491003064165E-08
(PID.TID 0000.0001) %MON exf_precip_mean              =   3.3608857674392E-08
(PID.TID 0000.0001) %MON exf_precip_sd                =   6.9543963030445E-08
(PID.TID 0000.0001) %MON exf_precip_del2              =   1.9127567707605E-10
(PID.TID 0000.0001) %MON exf_swflux_max               =   2.5065659672039E+01
(PID.TID 0000.0001) %MON exf_swflux_min               =  -7.8664998887622E+02
(PID.TID 0000.0001) %MON exf_swflux_mean              =  -1.9446046728889E+02
(PID.TID 0000.0001) %MON exf_swflux_sd                =   1.9787112942207E+02
(PID.TID 0000.0001) %MON exf_swflux_del2              =   3.8501115402924E-01
(PID.TID 0000.0001) %MON exf_swdown_max               =   8.4837019093831E+02
(PID.TID 0000.0001) %MON exf_swdown_min               =  -3.3591819127401E+01
(PID.TID 0000.0001) %MON exf_swdown_mean              =   2.1085165696943E+02
(PID.TID 0000.0001) %MON exf_swdown_sd                =   2.1389688518311E+02
(PID.TID 0000.0001) %MON exf_swdown_del2              =   4.1758413892465E-01
(PID.TID 0000.0001) %MON exf_lwdown_max               =   4.5898870849609E+02
(PID.TID 0000.0001) %MON exf_lwdown_min               =   7.0375409444173E+01
(PID.TID 0000.0001) %MON exf_lwdown_mean              =   3.6204416953301E+02
(PID.TID 0000.0001) %MON exf_lwdown_sd                =   6.6417122670295E+01
(PID.TID 0000.0001) %MON exf_lwdown_del2              =   4.8392541150234E-01
(PID.TID 0000.0001) %MON exf_runoff_max               =   2.0433888681187E-06
(PID.TID 0000.0001) %MON exf_runoff_min               =   0.0000000000000E+00
(PID.TID 0000.0001) %MON exf_runoff_mean              =   3.0406253864887E-09
(PID.TID 0000.0001) %MON exf_runoff_sd                =   2.4023223818624E-08
(PID.TID 0000.0001) %MON exf_runoff_del2              =   1.8145601373643E-11
(PID.TID 0000.0001) // =======================================================
(PID.TID 0000.0001) // End MONITOR EXF statistics
(PID.TID 0000.0001) // =======================================================
 SEAICE_LSR: Residual Initial ipass,Uice,Vice=    1  1.07182261E-01  1.43860843E-01
 SEAICE_LSR: Residual FrDrift U_fd,V_fd=  7.67207176E+01  6.85618656E+01
 SEAICE_LSR (ipass=   1) iters,dU,Resid=   352  1.98509895E-04  2.10225078E-03
 SEAICE_LSR (ipass=   1) iters,dV,Resid=   352  1.09003319E-04  1.32959504E-03
 SEAICE_LSR: Residual Initial ipass,Uice,Vice=    2  2.46462494E-01  2.21014158E-01
 SEAICE_LSR: Residual FrDrift U_fd,V_fd=  7.43666706E+01  6.30677145E+01
 SEAICE_LSR (ipass=   2) iters,dU,Resid=    88  7.41825198E-05  8.98553973E-04
 SEAICE_LSR (ipass=   2) iters,dV,Resid=    88  1.97513866E-04  2.35248977E-03
 cg2d: Sum(rhs),rhsMax =   3.59248173123487E+00  3.44700305840874E-01
 cg2d: Sum(rhs),rhsMax =   3.65920879592910E+00  3.37026531176870E-01
(PID.TID 0000.0001)      cg2d_init_res =   3.33587079865353E-01
(PID.TID 0000.0001)      cg2d_iters(min,last) =      -1      90
(PID.TID 0000.0001)      cg2d_last_res =   6.77579978575174E-06
(PID.TID 0000.0001) // =======================================================
(PID.TID 0000.0001) // Begin MONITOR dynamic field statistics
(PID.TID 0000.0001) // =======================================================
(PID.TID 0000.0001) %MON time_tsnumber                =                    16
(PID.TID 0000.0001) %MON time_secondsf                =   5.7600000000000E+04
(PID.TID 0000.0001) %MON dynstat_eta_max              =   1.1557372991916E+00
(PID.TID 0000.0001) %MON dynstat_eta_min              =  -4.2428235124287E+00
(PID.TID 0000.0001) %MON dynstat_eta_mean             =  -1.8520393752433E-03
(PID.TID 0000.0001) %MON dynstat_eta_sd               =   7.4414998764916E-01
(PID.TID 0000.0001) %MON dynstat_eta_del2             =   2.7709669007292E-04
(PID.TID 0000.0001) %MON dynstat_uvel_max             =   1.1753770366490E+00
(PID.TID 0000.0001) %MON dynstat_uvel_min             =  -6.6207887641008E-01
(PID.TID 0000.0001) %MON dynstat_uvel_mean            =   1.4511890277440E-03
(PID.TID 0000.0001) %MON dynstat_uvel_sd              =   2.1834241578269E-02
(PID.TID 0000.0001) %MON dynstat_uvel_del2            =   1.4799469018858E-05
(PID.TID 0000.0001) %MON dynstat_vvel_max             =   1.0431345312283E+00
(PID.TID 0000.0001) %MON dynstat_vvel_min             =  -9.2397759580545E-01
(PID.TID 0000.0001) %MON dynstat_vvel_mean            =   1.2350327670203E-03
(PID.TID 0000.0001) %MON dynstat_vvel_sd              =   2.4064026831211E-02
(PID.TID 0000.0001) %MON dynstat_vvel_del2            =   1.5734955644793E-05
(PID.TID 0000.0001) %MON dynstat_wvel_max             =   8.3872976927182E-04
(PID.TID 0000.0001) %MON dynstat_wvel_min             =  -1.0737284049219E-03
(PID.TID 0000.0001) %MON dynstat_wvel_mean            =  -5.2141602273907E-10
(PID.TID 0000.0001) %MON dynstat_wvel_sd              =   2.9671923979205E-05
(PID.TID 0000.0001) %MON dynstat_wvel_del2            =   3.4340388341717E-08
(PID.TID 0000.0001) %MON dynstat_theta_max            =   3.2621558460991E+01
(PID.TID 0000.0001) %MON dynstat_theta_min            =  -2.0423322045648E+00
(PID.TID 0000.0001) %MON dynstat_theta_mean           =   3.5906519600408E+00
(PID.TID 0000.0001) %MON dynstat_theta_sd             =   4.4367255550581E+00
(PID.TID 0000.0001) %MON dynstat_theta_del2           =   1.0733077553621E-04
(PID.TID 0000.0001) %MON dynstat_salt_max             =   4.0711500731457E+01
(PID.TID 0000.0001) %MON dynstat_salt_min             =   1.7458907954606E+01
(PID.TID 0000.0001) %MON dynstat_salt_mean            =   3.4725691713609E+01
(PID.TID 0000.0001) %MON dynstat_salt_sd              =   3.7887130714048E-01
(PID.TID 0000.0001) %MON dynstat_salt_del2            =   2.6449604846105E-05
(PID.TID 0000.0001) %MON dynstat_sst_max              =   3.2621558460991E+01
(PID.TID 0000.0001) %MON dynstat_sst_min              =  -1.9611127321328E+00
(PID.TID 0000.0001) %MON dynstat_sst_mean             =   1.8519957934516E+01
(PID.TID 0000.0001) %MON dynstat_sst_sd               =   1.0084737116356E+01
(PID.TID 0000.0001) %MON dynstat_sst_del2             =   8.8726603845185E-04
(PID.TID 0000.0001) %MON dynstat_sss_max              =   3.9711559856225E+01
(PID.TID 0000.0001) %MON dynstat_sss_min              =   1.7458907954606E+01
(PID.TID 0000.0001) %MON dynstat_sss_mean             =   3.4721129057243E+01
(PID.TID 0000.0001) %MON dynstat_sss_sd               =   1.2190069759738E+00
(PID.TID 0000.0001) %MON dynstat_sss_del2             =   3.9502285257569E-04
(PID.TID 0000.0001) %MON forcing_qnet_max             =   1.0020725515894E+03
(PID.TID 0000.0001) %MON forcing_qnet_min             =  -9.2396816928259E+02
(PID.TID 0000.0001) %MON forcing_qnet_mean            =  -1.3177477648458E+01
(PID.TID 0000.0001) %MON forcing_qnet_sd              =   2.5185669025752E+02
(PID.TID 0000.0001) %MON forcing_qnet_del2            =   1.6030878174893E-01
(PID.TID 0000.0001) %MON forcing_qsw_max              =   3.2964457946364E+01
(PID.TID 0000.0001) %MON forcing_qsw_min              =  -9.1181875444737E+02
(PID.TID 0000.0001) %MON forcing_qsw_mean             =  -1.8994657407031E+02
(PID.TID 0000.0001) %MON forcing_qsw_sd               =   2.2989702766208E+02
(PID.TID 0000.0001) %MON forcing_qsw_del2             =   9.4920132310121E-02
(PID.TID 0000.0001) %MON forcing_empmr_max            =   2.0435045427834E-03
(PID.TID 0000.0001) %MON forcing_empmr_min            =  -2.2353027549615E-03
(PID.TID 0000.0001) %MON forcing_empmr_mean           =   9.6533470367709E-06
(PID.TID 0000.0001) %MON forcing_empmr_sd             =   1.0201527100712E-04
(PID.TID 0000.0001) %MON forcing_empmr_del2           =   4.4718248193555E-07
(PID.TID 0000.0001) %MON forcing_fu_max               =   1.0350241444306E+00
(PID.TID 0000.0001) %MON forcing_fu_min               =  -1.1883952281435E+00
(PID.TID 0000.0001) %MON forcing_fu_mean              =   1.2670270629550E-02
(PID.TID 0000.0001) %MON forcing_fu_sd                =   1.1026851167879E-01
(PID.TID 0000.0001) %MON forcing_fu_del2              =   1.1298222262726E-04
(PID.TID 0000.0001) %MON forcing_fv_max               =   1.7448531898862E+00
(PID.TID 0000.0001) %MON forcing_fv_min               =  -6.5927578015962E-01
(PID.TID 0000.0001) %MON forcing_fv_mean              =   4.7006862077445E-03
(PID.TID 0000.0001) %MON forcing_fv_sd                =   1.2582224517958E-01
(PID.TID 0000.0001) %MON forcing_fv_del2              =   1.1765330829416E-04
(PID.TID 0000.0001) %MON trAdv_CFL_u_max              =   1.0568173245709E-01
(PID.TID 0000.0001) %MON trAdv_CFL_v_max              =   7.6682274030284E-02
(PID.TID 0000.0001) %MON trAdv_CFL_w_max              =   2.0710834946730E-01
(PID.TID 0000.0001) %MON advcfl_uvel_max              =   1.0871514583019E-01
(PID.TID 0000.0001) %MON advcfl_vvel_max              =   7.2067905715498E-02
(PID.TID 0000.0001) %MON advcfl_wvel_max              =   2.0861120373180E-01
(PID.TID 0000.0001) %MON advcfl_W_hf_max              =   2.1782765596662E-01
(PID.TID 0000.0001) %MON pe_b_mean                    =   4.3606682133389E-04
(PID.TID 0000.0001) %MON ke_max                       =   5.6992849541283E-01
(PID.TID 0000.0001) %MON ke_mean                      =   5.1086081022748E-04
(PID.TID 0000.0001) %MON ke_vol                       =   1.3349972259746E+18
(PID.TID 0000.0001) %MON vort_r_min                   =  -3.8979527739223E-05
(PID.TID 0000.0001) %MON vort_r_max                   =   3.3447613849852E-05
(PID.TID 0000.0001) %MON vort_a_mean                  =  -1.9727864647440E-05
(PID.TID 0000.0001) %MON vort_a_sd                    =   7.4543340245221E-05
(PID.TID 0000.0001) %MON vort_p_mean                  =  -2.1760537325621E-05
(PID.TID 0000.0001) %MON vort_p_sd                    =   9.7241099196887E-05
(PID.TID 0000.0001) %MON surfExpan_theta_mean         =   4.5938634263020E-08
(PID.TID 0000.0001) %MON surfExpan_salt_mean          =   2.6726360136817E-08
(PID.TID 0000.0001) // =======================================================
(PID.TID 0000.0001) // End MONITOR dynamic field statistics
(PID.TID 0000.0001) // =======================================================
(PID.TID 0000.0001) // =======================================================
(PID.TID 0000.0001) // Begin MONITOR SEAICE statistics
(PID.TID 0000.0001) // =======================================================
(PID.TID 0000.0001) %MON seaice_tsnumber              =                    16
(PID.TID 0000.0001) %MON seaice_time_sec              =   5.7600000000000E+04
(PID.TID 0000.0001) %MON seaice_uice_max              =   4.0000000000000E-01
(PID.TID 0000.0001) %MON seaice_uice_min              =  -4.0000000000000E-01
(PID.TID 0000.0001) %MON seaice_uice_mean             =   3.2837276038615E-03
(PID.TID 0000.0001) %MON seaice_uice_sd               =   1.8940323308997E-01
(PID.TID 0000.0001) %MON seaice_uice_del2             =   2.0134653362856E-04
(PID.TID 0000.0001) %MON seaice_vice_max              =   4.0000000000000E-01
(PID.TID 0000.0001) %MON seaice_vice_min              =  -4.0000000000000E-01
(PID.TID 0000.0001) %MON seaice_vice_mean             =  -1.0136366283001E-02
(PID.TID 0000.0001) %MON seaice_vice_sd               =   2.0558730335636E-01
(PID.TID 0000.0001) %MON seaice_vice_del2             =   2.1369663381428E-04
(PID.TID 0000.0001) %MON seaice_area_max              =   9.5000000000000E-01
(PID.TID 0000.0001) %MON seaice_area_min              =   0.0000000000000E+00
(PID.TID 0000.0001) %MON seaice_area_mean             =   3.9156415177048E-02
(PID.TID 0000.0001) %MON seaice_area_sd               =   1.7906364595440E-01
(PID.TID 0000.0001) %MON seaice_area_del2             =   2.6621522698889E-04
(PID.TID 0000.0001) %MON seaice_heff_max              =   3.8271386586126E+00
(PID.TID 0000.0001) %MON seaice_heff_min              =   0.0000000000000E+00
(PID.TID 0000.0001) %MON seaice_heff_mean             =   5.3486700069294E-02
(PID.TID 0000.0001) %MON seaice_heff_sd               =   3.0534276193920E-01
(PID.TID 0000.0001) %MON seaice_heff_del2             =   2.8855433584658E-04
(PID.TID 0000.0001) %MON seaice_hsnow_max             =   9.7306568399220E-01
(PID.TID 0000.0001) %MON seaice_hsnow_min             =  -2.4268733994217E-05
(PID.TID 0000.0001) %MON seaice_hsnow_mean            =   5.2424504665011E-03
(PID.TID 0000.0001) %MON seaice_hsnow_sd              =   3.1453935505613E-02
(PID.TID 0000.0001) %MON seaice_hsnow_del2            =   5.2038718256492E-05
(PID.TID 0000.0001) // =======================================================
(PID.TID 0000.0001) // End MONITOR SEAICE statistics
(PID.TID 0000.0001) // =======================================================
(PID.TID 0000.0001) // =======================================================
(PID.TID 0000.0001) // Begin MONITOR EXF statistics
(PID.TID 0000.0001) // =======================================================
(PID.TID 0000.0001) %MON exf_tsnumber                 =                    16
(PID.TID 0000.0001) %MON exf_time_sec                 =   5.7600000000000E+04
(PID.TID 0000.0001) %MON exf_ustress_max              =   1.3279860750490E+00
(PID.TID 0000.0001) %MON exf_ustress_min              =  -1.6676632047480E+00
(PID.TID 0000.0001) %MON exf_ustress_mean             =   1.3390113123835E-02
(PID.TID 0000.0001) %MON exf_ustress_sd               =   1.0330104681859E-01
(PID.TID 0000.0001) %MON exf_ustress_del2             =   1.0309516188130E-04
(PID.TID 0000.0001) %MON exf_vstress_max              =   1.2534819721386E+00
(PID.TID 0000.0001) %MON exf_vstress_min              =  -6.1878752211730E-01
(PID.TID 0000.0001) %MON exf_vstress_mean             =   3.0351247460119E-03
(PID.TID 0000.0001) %MON exf_vstress_sd               =   1.1723701139204E-01
(PID.TID 0000.0001) %MON exf_vstress_del2             =   9.2404999978799E-05
(PID.TID 0000.0001) %MON exf_hflux_max                =   1.4775989084402E+03
(PID.TID 0000.0001) %MON exf_hflux_min                =  -6.6687589892857E+02
(PID.TID 0000.0001) %MON exf_hflux_mean               =   6.1711265596468E+00
(PID.TID 0000.0001) %MON exf_hflux_sd                 =   2.4780145794942E+02
(PID.TID 0000.0001) %MON exf_hflux_del2               =   4.2600767123534E-01
(PID.TID 0000.0001) %MON exf_sflux_max                =   2.3436162216467E-07
(PID.TID 0000.0001) %MON exf_sflux_min                =  -2.2038116825314E-06
(PID.TID 0000.0001) %MON exf_sflux_mean               =   8.8683201495513E-09
(PID.TID 0000.0001) %MON exf_sflux_sd                 =   8.2768868000312E-08
(PID.TID 0000.0001) %MON exf_sflux_del2               =   2.0118471097341E-10
(PID.TID 0000.0001) %MON exf_wspeed_max               =   2.1797639846802E+01
(PID.TID 0000.0001) %MON exf_wspeed_min               =   2.6197315504154E-01
(PID.TID 0000.0001) %MON exf_wspeed_mean              =   6.9255951053848E+00
(PID.TID 0000.0001) %MON exf_wspeed_sd                =   3.1364153298522E+00
(PID.TID 0000.0001) %MON exf_wspeed_del2              =   1.1991320946447E-02
(PID.TID 0000.0001) %MON exf_atemp_max                =   3.0422755756378E+02
(PID.TID 0000.0001) %MON exf_atemp_min                =   2.3129711443583E+02
(PID.TID 0000.0001) %MON exf_atemp_mean               =   2.8913589248624E+02
(PID.TID 0000.0001) %MON exf_atemp_sd                 =   1.2315872004076E+01
(PID.TID 0000.0001) %MON exf_atemp_del2               =   2.6579460947007E-02
(PID.TID 0000.0001) %MON exf_aqh_max                  =   2.2678102366626E-02
(PID.TID 0000.0001) %MON exf_aqh_min                  =   9.3756332110691E-05
(PID.TID 0000.0001) %MON exf_aqh_mean                 =   1.0869712060927E-02
(PID.TID 0000.0001) %MON exf_aqh_sd                   =   5.6263017449140E-03
(PID.TID 0000.0001) %MON exf_aqh_del2                 =   1.4601375602734E-05
(PID.TID 0000.0001) %MON exf_lwflux_max               =   2.2884288782164E+02
(PID.TID 0000.0001) %MON exf_lwflux_min               =  -2.3532971709820E+01
(PID.TID 0000.0001) %MON exf_lwflux_mean              =   4.9684575071002E+01
(PID.TID 0000.0001) %MON exf_lwflux_sd                =   2.9548052982735E+01
(PID.TID 0000.0001) %MON exf_lwflux_del2              =   1.0360219186108E-01
(PID.TID 0000.0001) %MON exf_evap_max                 =   2.5233827350298E-07
(PID.TID 0000.0001) %MON exf_evap_min                 =  -3.5975035041456E-08
(PID.TID 0000.0001) %MON exf_evap_mean                =   4.5535315909461E-08
(PID.TID 0000.0001) %MON exf_evap_sd                  =   2.9359110256038E-08
(PID.TID 0000.0001) %MON exf_evap_del2                =   7.3438984782650E-11
(PID.TID 0000.0001) %MON exf_precip_max               =   1.9567149062520E-06
(PID.TID 0000.0001) %MON exf_precip_min               =  -1.4528843165588E-08
(PID.TID 0000.0001) %MON exf_precip_mean              =   3.3627274799048E-08
(PID.TID 0000.0001) %MON exf_precip_sd                =   7.0832060470716E-08
(PID.TID 0000.0001) %MON exf_precip_del2              =   1.9305580036589E-10
(PID.TID 0000.0001) %MON exf_swflux_max               =   2.7204901838094E+01
(PID.TID 0000.0001) %MON exf_swflux_min               =  -8.1806012339458E+02
(PID.TID 0000.0001) %MON exf_swflux_mean              =  -1.8720563733763E+02
(PID.TID 0000.0001) %MON exf_swflux_sd                =   2.0107357521949E+02
(PID.TID 0000.0001) %MON exf_swflux_del2              =   3.7707158510520E-01
(PID.TID 0000.0001) %MON exf_swdown_max               =   8.8287643941243E+02
(PID.TID 0000.0001) %MON exf_swdown_min               =  -3.3631156921387E+01
(PID.TID 0000.0001) %MON exf_swdown_mean              =   2.0292738861470E+02
(PID.TID 0000.0001) %MON exf_swdown_sd                =   2.1736400731477E+02
(PID.TID 0000.0001) %MON exf_swdown_del2              =   4.0879669057647E-01
(PID.TID 0000.0001) %MON exf_lwdown_max               =   4.5964950561523E+02
(PID.TID 0000.0001) %MON exf_lwdown_min               =   7.0753681182861E+01
(PID.TID 0000.0001) %MON exf_lwdown_mean              =   3.6202129461052E+02
(PID.TID 0000.0001) %MON exf_lwdown_sd                =   6.6522648537927E+01
(PID.TID 0000.0001) %MON exf_lwdown_del2              =   4.8374737788838E-01
(PID.TID 0000.0001) %MON exf_runoff_max               =   2.0465430269166E-06
(PID.TID 0000.0001) %MON exf_runoff_min               =   0.0000000000000E+00
(PID.TID 0000.0001) %MON exf_runoff_mean              =   3.0397209608625E-09
(PID.TID 0000.0001) %MON exf_runoff_sd                =   2.4052528562519E-08
(PID.TID 0000.0001) %MON exf_runoff_del2              =   1.8156058662969E-11
(PID.TID 0000.0001) // =======================================================
(PID.TID 0000.0001) // End MONITOR EXF statistics
(PID.TID 0000.0001) // =======================================================
 SEAICE_LSR: Residual Initial ipass,Uice,Vice=    1  1.12537679E-01  1.49516157E-01
 SEAICE_LSR: Residual FrDrift U_fd,V_fd=  7.53132966E+01  6.96513794E+01
 SEAICE_LSR (ipass=   1) iters,dU,Resid=   356  1.99697582E-04  2.13565127E-03
 SEAICE_LSR (ipass=   1) iters,dV,Resid=   356  1.02157336E-04  1.37823448E-03
 SEAICE_LSR: Residual Initial ipass,Uice,Vice=    2  2.69471083E-01  1.99842542E-01
 SEAICE_LSR: Residual FrDrift U_fd,V_fd=  7.33932251E+01  6.53449129E+01
 SEAICE_LSR (ipass=   2) iters,dU,Resid=    80  8.84982633E-05  9.51931309E-04
 SEAICE_LSR (ipass=   2) iters,dV,Resid=    80  1.95641793E-04  2.29529609E-03
 cg2d: Sum(rhs),rhsMax =   3.72045075934829E+00  3.36045630357439E-01
 cg2d: Sum(rhs),rhsMax =   3.77654174323985E+00  3.34882032440226E-01
(PID.TID 0000.0001)      cg2d_init_res =   3.13101113354243E-01
(PID.TID 0000.0001)      cg2d_iters(min,last) =      -1      90
(PID.TID 0000.0001)      cg2d_last_res =   6.83255148032007E-06
(PID.TID 0000.0001) // =======================================================
(PID.TID 0000.0001) // Begin MONITOR dynamic field statistics
(PID.TID 0000.0001) // =======================================================
(PID.TID 0000.0001) %MON time_tsnumber                =                    18
(PID.TID 0000.0001) %MON time_secondsf                =   6.4800000000000E+04
(PID.TID 0000.0001) %MON dynstat_eta_max              =   1.1717586255247E+00
(PID.TID 0000.0001) %MON dynstat_eta_min              =  -4.1701975201392E+00
(PID.TID 0000.0001) %MON dynstat_eta_mean             =  -1.9114252290033E-03
(PID.TID 0000.0001) %MON dynstat_eta_sd               =   7.4395881651613E-01
(PID.TID 0000.0001) %MON dynstat_eta_del2             =   2.7867802866828E-04
(PID.TID 0000.0001) %MON dynstat_uvel_max             =   1.2058591219977E+00
(PID.TID 0000.0001) %MON dynstat_uvel_min             =  -6.7654518468902E-01
(PID.TID 0000.0001) %MON dynstat_uvel_mean            =   1.4346866379758E-03
(PID.TID 0000.0001) %MON dynstat_uvel_sd              =   2.1846025101405E-02
(PID.TID 0000.0001) %MON dynstat_uvel_del2            =   1.4629266377732E-05
(PID.TID 0000.0001) %MON dynstat_vvel_max             =   1.0598488050452E+00
(PID.TID 0000.0001) %MON dynstat_vvel_min             =  -9.2192220392776E-01
(PID.TID 0000.0001) %MON dynstat_vvel_mean            =   1.2418106905010E-03
(PID.TID 0000.0001) %MON dynstat_vvel_sd              =   2.4065007810404E-02
(PID.TID 0000.0001) %MON dynstat_vvel_del2            =   1.5511814336961E-05
(PID.TID 0000.0001) %MON dynstat_wvel_max             =   8.1610228670686E-04
(PID.TID 0000.0001) %MON dynstat_wvel_min             =  -1.0744971752465E-03
(PID.TID 0000.0001) %MON dynstat_wvel_mean            =  -3.2002097730014E-09
(PID.TID 0000.0001) %MON dynstat_wvel_sd              =   2.9423554851972E-05
(PID.TID 0000.0001) %MON dynstat_wvel_del2            =   3.3570940826334E-08
(PID.TID 0000.0001) %MON dynstat_theta_max            =   3.2652886053082E+01
(PID.TID 0000.0001) %MON dynstat_theta_min            =  -2.0423511980721E+00
(PID.TID 0000.0001) %MON dynstat_theta_mean           =   3.5906547949767E+00
(PID.TID 0000.0001) %MON dynstat_theta_sd             =   4.4367234553958E+00
(PID.TID 0000.0001) %MON dynstat_theta_del2           =   1.0708676609185E-04
(PID.TID 0000.0001) %MON dynstat_salt_max             =   4.0711497393636E+01
(PID.TID 0000.0001) %MON dynstat_salt_min             =   1.7462352372404E+01
(PID.TID 0000.0001) %MON dynstat_salt_mean            =   3.4725692245706E+01
(PID.TID 0000.0001) %MON dynstat_salt_sd              =   3.7887018435156E-01
(PID.TID 0000.0001) %MON dynstat_salt_del2            =   2.6353684454872E-05
(PID.TID 0000.0001) %MON dynstat_sst_max              =   3.2652886053082E+01
(PID.TID 0000.0001) %MON dynstat_sst_min              =  -1.9611006932731E+00
(PID.TID 0000.0001) %MON dynstat_sst_mean             =   1.8519466610857E+01
(PID.TID 0000.0001) %MON dynstat_sst_sd               =   1.0084039193511E+01
(PID.TID 0000.0001) %MON dynstat_sst_del2             =   8.8721839125033E-04
(PID.TID 0000.0001) %MON dynstat_sss_max              =   3.9711973212628E+01
(PID.TID 0000.0001) %MON dynstat_sss_min              =   1.7462352372404E+01
(PID.TID 0000.0001) %MON dynstat_sss_mean             =   3.4721202617533E+01
(PID.TID 0000.0001) %MON dynstat_sss_sd               =   1.2190438315517E+00
(PID.TID 0000.0001) %MON dynstat_sss_del2             =   3.9475964161940E-04
(PID.TID 0000.0001) %MON forcing_qnet_max             =   9.0933992463409E+02
(PID.TID 0000.0001) %MON forcing_qnet_min             =  -8.5447493665926E+02
(PID.TID 0000.0001) %MON forcing_qnet_mean            =  -4.3826259097951E+00
(PID.TID 0000.0001) %MON forcing_qnet_sd              =   2.0779840620917E+02
(PID.TID 0000.0001) %MON forcing_qnet_del2            =   1.4953867068736E-01
(PID.TID 0000.0001) %MON forcing_qsw_max              =   2.5109655303937E+01
(PID.TID 0000.0001) %MON forcing_qsw_min              =  -7.3879596348084E+02
(PID.TID 0000.0001) %MON forcing_qsw_mean             =  -1.8150927361639E+02
(PID.TID 0000.0001) %MON forcing_qsw_sd               =   1.8151195878371E+02
(PID.TID 0000.0001) %MON forcing_qsw_del2             =   8.0331829889125E-02
(PID.TID 0000.0001) %MON forcing_empmr_max            =   2.0038157658871E-03
(PID.TID 0000.0001) %MON forcing_empmr_min            =  -2.1723850508100E-03
(PID.TID 0000.0001) %MON forcing_empmr_mean           =   8.1146343783589E-06
(PID.TID 0000.0001) %MON forcing_empmr_sd             =   1.0005555415954E-04
(PID.TID 0000.0001) %MON forcing_empmr_del2           =   4.3899948210725E-07
(PID.TID 0000.0001) %MON forcing_fu_max               =   1.0777346777217E+00
(PID.TID 0000.0001) %MON forcing_fu_min               =  -1.3016893801614E+00
(PID.TID 0000.0001) %MON forcing_fu_mean              =   1.2739272425142E-02
(PID.TID 0000.0001) %MON forcing_fu_sd                =   1.0810029908930E-01
(PID.TID 0000.0001) %MON forcing_fu_del2              =   1.0785004543495E-04
(PID.TID 0000.0001) %MON forcing_fv_max               =   1.6711262009884E+00
(PID.TID 0000.0001) %MON forcing_fv_min               =  -6.9889861901781E-01
(PID.TID 0000.0001) %MON forcing_fv_mean              =   3.7648367254510E-03
(PID.TID 0000.0001) %MON forcing_fv_sd                =   1.2370554819322E-01
(PID.TID 0000.0001) %MON forcing_fv_del2              =   1.0895051867688E-04
(PID.TID 0000.0001) %MON trAdv_CFL_u_max              =   1.0847149874088E-01
(PID.TID 0000.0001) %MON trAdv_CFL_v_max              =   7.3412576560738E-02
(PID.TID 0000.0001) %MON trAdv_CFL_w_max              =   2.1129451008573E-01
(PID.TID 0000.0001) %MON advcfl_uvel_max              =   1.1153455122144E-01
(PID.TID 0000.0001) %MON advcfl_vvel_max              =   6.8798878007190E-02
(PID.TID 0000.0001) %MON advcfl_wvel_max              =   2.1285313166616E-01
(PID.TID 0000.0001) %MON advcfl_W_hf_max              =   2.2201374191257E-01
(PID.TID 0000.0001) %MON pe_b_mean                    =   4.3550021642234E-04
(PID.TID 0000.0001) %MON ke_max                       =   6.1098259125702E-01
(PID.TID 0000.0001) %MON ke_mean                      =   5.1111686233637E-04
(PID.TID 0000.0001) %MON ke_vol                       =   1.3349972027864E+18
(PID.TID 0000.0001) %MON vort_r_min                   =  -3.9478422763990E-05
(PID.TID 0000.0001) %MON vort_r_max                   =   3.0507128245686E-05
(PID.TID 0000.0001) %MON vort_a_mean                  =  -1.9727864647440E-05
(PID.TID 0000.0001) %MON vort_a_sd                    =   7.4543333043182E-05
(PID.TID 0000.0001) %MON vort_p_mean                  =  -2.1760537615332E-05
(PID.TID 0000.0001) %MON vort_p_sd                    =   9.7241223223907E-05
(PID.TID 0000.0001) %MON surfExpan_theta_mean         =   7.3092928074616E-08
(PID.TID 0000.0001) %MON surfExpan_salt_mean          =   3.8656185314353E-08
(PID.TID 0000.0001) // =======================================================
(PID.TID 0000.0001) // End MONITOR dynamic field statistics
(PID.TID 0000.0001) // =======================================================
(PID.TID 0000.0001) // =======================================================
(PID.TID 0000.0001) // Begin MONITOR SEAICE statistics
(PID.TID 0000.0001) // =======================================================
(PID.TID 0000.0001) %MON seaice_tsnumber              =                    18
(PID.TID 0000.0001) %MON seaice_time_sec              =   6.4800000000000E+04
(PID.TID 0000.0001) %MON seaice_uice_max              =   4.0000000000000E-01
(PID.TID 0000.0001) %MON seaice_uice_min              =  -4.0000000000000E-01
(PID.TID 0000.0001) %MON seaice_uice_mean             =   2.7740071230262E-03
(PID.TID 0000.0001) %MON seaice_uice_sd               =   1.8894815311201E-01
(PID.TID 0000.0001) %MON seaice_uice_del2             =   1.9731817249907E-04
(PID.TID 0000.0001) %MON seaice_vice_max              =   4.0000000000000E-01
(PID.TID 0000.0001) %MON seaice_vice_min              =  -4.0000000000000E-01
(PID.TID 0000.0001) %MON seaice_vice_mean             =  -1.1447087973406E-02
(PID.TID 0000.0001) %MON seaice_vice_sd               =   2.0640150541802E-01
(PID.TID 0000.0001) %MON seaice_vice_del2             =   2.1193199520757E-04
(PID.TID 0000.0001) %MON seaice_area_max              =   9.5000000000000E-01
(PID.TID 0000.0001) %MON seaice_area_min              =   0.0000000000000E+00
(PID.TID 0000.0001) %MON seaice_area_mean             =   3.9131467744845E-02
(PID.TID 0000.0001) %MON seaice_area_sd               =   1.7900516786139E-01
(PID.TID 0000.0001) %MON seaice_area_del2             =   2.6331892710934E-04
(PID.TID 0000.0001) %MON seaice_heff_max              =   3.8623521619262E+00
(PID.TID 0000.0001) %MON seaice_heff_min              =   0.0000000000000E+00
(PID.TID 0000.0001) %MON seaice_heff_mean             =   5.3497276218747E-02
(PID.TID 0000.0001) %MON seaice_heff_sd               =   3.0546331291658E-01
(PID.TID 0000.0001) %MON seaice_heff_del2             =   2.9026519144414E-04
(PID.TID 0000.0001) %MON seaice_hsnow_max             =   9.7477651323429E-01
(PID.TID 0000.0001) %MON seaice_hsnow_min             =  -2.1497328999845E-05
(PID.TID 0000.0001) %MON seaice_hsnow_mean            =   5.2406799225528E-03
(PID.TID 0000.0001) %MON seaice_hsnow_sd              =   3.1452698870750E-02
(PID.TID 0000.0001) %MON seaice_hsnow_del2            =   5.2138779385637E-05
(PID.TID 0000.0001) // =======================================================
(PID.TID 0000.0001) // End MONITOR SEAICE statistics
(PID.TID 0000.0001) // =======================================================
(PID.TID 0000.0001) // =======================================================
(PID.TID 0000.0001) // Begin MONITOR EXF statistics
(PID.TID 0000.0001) // =======================================================
(PID.TID 0000.0001) %MON exf_tsnumber                 =                    18
(PID.TID 0000.0001) %MON exf_time_sec                 =   6.4800000000000E+04
(PID.TID 0000.0001) %MON exf_ustress_max              =   1.4443793611806E+00
(PID.TID 0000.0001) %MON exf_ustress_min              =  -1.7846687731206E+00
(PID.TID 0000.0001) %MON exf_ustress_mean             =   1.3457656266532E-02
(PID.TID 0000.0001) %MON exf_ustress_sd               =   1.0201991436182E-01
(PID.TID 0000.0001) %MON exf_ustress_del2             =   9.9584033749887E-05
(PID.TID 0000.0001) %MON exf_vstress_max              =   1.2409372190307E+00
(PID.TID 0000.0001) %MON exf_vstress_min              =  -6.2370979785919E-01
(PID.TID 0000.0001) %MON exf_vstress_mean             =   2.1506799812292E-03
(PID.TID 0000.0001) %MON exf_vstress_sd               =   1.1618692618861E-01
(PID.TID 0000.0001) %MON exf_vstress_del2             =   8.6580229564500E-05
(PID.TID 0000.0001) %MON exf_hflux_max                =   1.4340353764533E+03
(PID.TID 0000.0001) %MON exf_hflux_min                =  -5.3475859004397E+02
(PID.TID 0000.0001) %MON exf_hflux_mean               =   1.4978238356723E+01
(PID.TID 0000.0001) %MON exf_hflux_sd                 =   2.2672419701495E+02
(PID.TID 0000.0001) %MON exf_hflux_del2               =   4.0377946766238E-01
(PID.TID 0000.0001) %MON exf_sflux_max                =   2.2881423808305E-07
(PID.TID 0000.0001) %MON exf_sflux_min                =  -2.4397160619081E-06
(PID.TID 0000.0001) %MON exf_sflux_mean               =   7.6164410935124E-09
(PID.TID 0000.0001) %MON exf_sflux_sd                 =   8.4434384083863E-08
(PID.TID 0000.0001) %MON exf_sflux_del2               =   2.0148200712833E-10
(PID.TID 0000.0001) %MON exf_wspeed_max               =   2.1677968978882E+01
(PID.TID 0000.0001) %MON exf_wspeed_min               =   3.3079713582993E-01
(PID.TID 0000.0001) %MON exf_wspeed_mean              =   6.9238942920365E+00
(PID.TID 0000.0001) %MON exf_wspeed_sd                =   3.0773474543053E+00
(PID.TID 0000.0001) %MON exf_wspeed_del2              =   1.1853558917460E-02
(PID.TID 0000.0001) %MON exf_atemp_max                =   3.0467955055237E+02
(PID.TID 0000.0001) %MON exf_atemp_min                =   2.3086234703064E+02
(PID.TID 0000.0001) %MON exf_atemp_mean               =   2.8913464907226E+02
(PID.TID 0000.0001) %MON exf_atemp_sd                 =   1.2343786156082E+01
(PID.TID 0000.0001) %MON exf_atemp_del2               =   2.6614150621977E-02
(PID.TID 0000.0001) %MON exf_aqh_max                  =   2.2411018610001E-02
(PID.TID 0000.0001) %MON exf_aqh_min                  =   8.9528755779611E-05
(PID.TID 0000.0001) %MON exf_aqh_mean                 =   1.0853651110810E-02
(PID.TID 0000.0001) %MON exf_aqh_sd                   =   5.6179994794131E-03
(PID.TID 0000.0001) %MON exf_aqh_del2                 =   1.4563146623972E-05
(PID.TID 0000.0001) %MON exf_lwflux_max               =   2.2772089127551E+02
(PID.TID 0000.0001) %MON exf_lwflux_min               =  -2.1699417525694E+01
(PID.TID 0000.0001) %MON exf_lwflux_mean              =   4.9434166402390E+01
(PID.TID 0000.0001) %MON exf_lwflux_sd                =   2.9282992204654E+01
(PID.TID 0000.0001) %MON exf_lwflux_del2              =   1.0301030138180E-01
(PID.TID 0000.0001) %MON exf_evap_max                 =   2.4127500143182E-07
(PID.TID 0000.0001) %MON exf_evap_min                 =  -3.2249806503664E-08
(PID.TID 0000.0001) %MON exf_evap_mean                =   4.5720949164491E-08
(PID.TID 0000.0001) %MON exf_evap_sd                  =   2.9013246533544E-08
(PID.TID 0000.0001) %MON exf_evap_del2                =   7.2728000094743E-11
(PID.TID 0000.0001) %MON exf_precip_max               =   2.4674946246250E-06
(PID.TID 0000.0001) %MON exf_precip_min               =  -1.4566683415040E-08
(PID.TID 0000.0001) %MON exf_precip_mean              =   3.5065691535742E-08
(PID.TID 0000.0001) %MON exf_precip_sd                =   7.2958651017108E-08
(PID.TID 0000.0001) %MON exf_precip_del2              =   1.9431904641488E-10
(PID.TID 0000.0001) %MON exf_swflux_max               =   2.5124320329976E+01
(PID.TID 0000.0001) %MON exf_swflux_min               =  -7.0330510972796E+02
(PID.TID 0000.0001) %MON exf_swflux_mean              =  -1.7862889846038E+02
(PID.TID 0000.0001) %MON exf_swflux_sd                =   1.7545261306667E+02
(PID.TID 0000.0001) %MON exf_swflux_del2              =   3.4081849068584E-01
(PID.TID 0000.0001) %MON exf_swdown_max               =   7.5859008789062E+02
(PID.TID 0000.0001) %MON exf_swdown_min               =  -3.3670494079590E+01
(PID.TID 0000.0001) %MON exf_swdown_mean              =   1.9353556511449E+02
(PID.TID 0000.0001) %MON exf_swdown_sd                =   1.8953166087804E+02
(PID.TID 0000.0001) %MON exf_swdown_del2              =   3.6933746666021E-01
(PID.TID 0000.0001) %MON exf_lwdown_max               =   4.6157595825195E+02
(PID.TID 0000.0001) %MON exf_lwdown_min               =   7.1910381317139E+01
(PID.TID 0000.0001) %MON exf_lwdown_mean              =   3.6227632194405E+02
(PID.TID 0000.0001) %MON exf_lwdown_sd                =   6.6343499372351E+01
(PID.TID 0000.0001) %MON exf_lwdown_del2              =   4.8394419246846E-01
(PID.TID 0000.0001) %MON exf_runoff_max               =   2.0496971857146E-06
(PID.TID 0000.0001) %MON exf_runoff_min               =   0.0000000000000E+00
(PID.TID 0000.0001) %MON exf_runoff_mean              =   3.0388165352362E-09
(PID.TID 0000.0001) %MON exf_runoff_sd                =   2.4081851407312E-08
(PID.TID 0000.0001) %MON exf_runoff_del2              =   1.8166540960572E-11
(PID.TID 0000.0001) // =======================================================
(PID.TID 0000.0001) // End MONITOR EXF statistics
(PID.TID 0000.0001) // =======================================================
 SEAICE_LSR: Residual Initial ipass,Uice,Vice=    1  1.14372883E-01  1.50764330E-01
 SEAICE_LSR: Residual FrDrift U_fd,V_fd=  7.34122537E+01  7.02519986E+01
 SEAICE_LSR (ipass=   1) iters,dU,Resid=   378  1.97595366E-04  2.13688068E-03
 SEAICE_LSR (ipass=   1) iters,dV,Resid=   378  8.56962363E-05  1.17275811E-03
 SEAICE_LSR: Residual Initial ipass,Uice,Vice=    2  2.21819587E-01  1.57128919E-01
 SEAICE_LSR: Residual FrDrift U_fd,V_fd=  7.12762771E+01  6.60916860E+01
 SEAICE_LSR (ipass=   2) iters,dU,Resid=    74  1.23746329E-04  9.30709434E-04
 SEAICE_LSR (ipass=   2) iters,dV,Resid=    74  1.99879053E-04  1.92760760E-03
 cg2d: Sum(rhs),rhsMax =   3.82790450073689E+00  3.33824655204313E-01
 cg2d: Sum(rhs),rhsMax =   3.87483357949257E+00  3.32935137295618E-01
(PID.TID 0000.0001)      cg2d_init_res =   2.85638958813789E-01
(PID.TID 0000.0001)      cg2d_iters(min,last) =      -1      88
(PID.TID 0000.0001)      cg2d_last_res =   6.90664834340144E-06
(PID.TID 0000.0001) // =======================================================
(PID.TID 0000.0001) // Begin MONITOR dynamic field statistics
(PID.TID 0000.0001) // =======================================================
(PID.TID 0000.0001) %MON time_tsnumber                =                    20
(PID.TID 0000.0001) %MON time_secondsf                =   7.2000000000000E+04
(PID.TID 0000.0001) %MON dynstat_eta_max              =   1.1797168188700E+00
(PID.TID 0000.0001) %MON dynstat_eta_min              =  -4.0931618828725E+00
(PID.TID 0000.0001) %MON dynstat_eta_mean             =  -1.9611737842667E-03
(PID.TID 0000.0001) %MON dynstat_eta_sd               =   7.4377722126342E-01
(PID.TID 0000.0001) %MON dynstat_eta_del2             =   2.8080610313640E-04
(PID.TID 0000.0001) %MON dynstat_uvel_max             =   1.2523107782165E+00
(PID.TID 0000.0001) %MON dynstat_uvel_min             =  -6.9299104915227E-01
(PID.TID 0000.0001) %MON dynstat_uvel_mean            =   1.4190904398992E-03
(PID.TID 0000.0001) %MON dynstat_uvel_sd              =   2.1792115292667E-02
(PID.TID 0000.0001) %MON dynstat_uvel_del2            =   1.4472382915615E-05
(PID.TID 0000.0001) %MON dynstat_vvel_max             =   1.0770211289715E+00
(PID.TID 0000.0001) %MON dynstat_vvel_min             =  -9.2108381053630E-01
(PID.TID 0000.0001) %MON dynstat_vvel_mean            =   1.2423119908721E-03
(PID.TID 0000.0001) %MON dynstat_vvel_sd              =   2.4072580147745E-02
(PID.TID 0000.0001) %MON dynstat_vvel_del2            =   1.5323385161851E-05
(PID.TID 0000.0001) %MON dynstat_wvel_max             =   7.9523015035171E-04
(PID.TID 0000.0001) %MON dynstat_wvel_min             =  -1.0827781944229E-03
(PID.TID 0000.0001) %MON dynstat_wvel_mean            =  -4.3790326865675E-09
(PID.TID 0000.0001) %MON dynstat_wvel_sd              =   2.9272962122759E-05
(PID.TID 0000.0001) %MON dynstat_wvel_del2            =   3.2822000612199E-08
(PID.TID 0000.0001) %MON dynstat_theta_max            =   3.2664344778774E+01
(PID.TID 0000.0001) %MON dynstat_theta_min            =  -2.0423638800248E+00
(PID.TID 0000.0001) %MON dynstat_theta_mean           =   3.5906535617278E+00
(PID.TID 0000.0001) %MON dynstat_theta_sd             =   4.4366962421320E+00
(PID.TID 0000.0001) %MON dynstat_theta_del2           =   1.0685731722245E-04
(PID.TID 0000.0001) %MON dynstat_salt_max             =   4.0711493852891E+01
(PID.TID 0000.0001) %MON dynstat_salt_min             =   1.7466634679030E+01
(PID.TID 0000.0001) %MON dynstat_salt_mean            =   3.4725692696535E+01
(PID.TID 0000.0001) %MON dynstat_salt_sd              =   3.7886912468948E-01
(PID.TID 0000.0001) %MON dynstat_salt_del2            =   2.6261921247514E-05
(PID.TID 0000.0001) %MON dynstat_sst_max              =   3.2664344778774E+01
(PID.TID 0000.0001) %MON dynstat_sst_min              =  -1.9610850696222E+00
(PID.TID 0000.0001) %MON dynstat_sst_mean             =   1.8518216883514E+01
(PID.TID 0000.0001) %MON dynstat_sst_sd               =   1.0082471086558E+01
(PID.TID 0000.0001) %MON dynstat_sst_del2             =   8.8685787316339E-04
(PID.TID 0000.0001) %MON dynstat_sss_max              =   3.9712687768710E+01
(PID.TID 0000.0001) %MON dynstat_sss_min              =   1.7466634679030E+01
(PID.TID 0000.0001) %MON dynstat_sss_mean             =   3.4721240725770E+01
(PID.TID 0000.0001) %MON dynstat_sss_sd               =   1.2190458399775E+00
(PID.TID 0000.0001) %MON dynstat_sss_del2             =   3.9440147238043E-04
(PID.TID 0000.0001) %MON forcing_qnet_max             =   8.8056457772118E+02
(PID.TID 0000.0001) %MON forcing_qnet_min             =  -7.2506969442874E+02
(PID.TID 0000.0001) %MON forcing_qnet_mean            =   4.3997969186639E+00
(PID.TID 0000.0001) %MON forcing_qnet_sd              =   2.1048362248001E+02
(PID.TID 0000.0001) %MON forcing_qnet_del2            =   1.4532709827907E-01
(PID.TID 0000.0001) %MON forcing_qsw_max              =   2.5138985342788E+01
(PID.TID 0000.0001) %MON forcing_qsw_min              =  -7.1547103675762E+02
(PID.TID 0000.0001) %MON forcing_qsw_mean             =  -1.7306768258189E+02
(PID.TID 0000.0001) %MON forcing_qsw_sd               =   1.8389275376827E+02
(PID.TID 0000.0001) %MON forcing_qsw_del2             =   7.8525705714514E-02
(PID.TID 0000.0001) %MON forcing_empmr_max            =   1.9661580581837E-03
(PID.TID 0000.0001) %MON forcing_empmr_min            =  -3.1721056560028E-03
(PID.TID 0000.0001) %MON forcing_empmr_mean           =   6.7891894453539E-06
(PID.TID 0000.0001) %MON forcing_empmr_sd             =   1.0355272547182E-04
(PID.TID 0000.0001) %MON forcing_empmr_del2           =   4.4014604235856E-07
(PID.TID 0000.0001) %MON forcing_fu_max               =   1.1995541408727E+00
(PID.TID 0000.0001) %MON forcing_fu_min               =  -1.4227497117392E+00
(PID.TID 0000.0001) %MON forcing_fu_mean              =   1.2794337833076E-02
(PID.TID 0000.0001) %MON forcing_fu_sd                =   1.0848162625619E-01
(PID.TID 0000.0001) %MON forcing_fu_del2              =   1.0791847498274E-04
(PID.TID 0000.0001) %MON forcing_fv_max               =   1.6169910884009E+00
(PID.TID 0000.0001) %MON forcing_fv_min               =  -8.2314121967883E-01
(PID.TID 0000.0001) %MON forcing_fv_mean              =   2.8184015796979E-03
(PID.TID 0000.0001) %MON forcing_fv_sd                =   1.2388585018993E-01
(PID.TID 0000.0001) %MON forcing_fv_del2              =   1.0881066173016E-04
(PID.TID 0000.0001) %MON trAdv_CFL_u_max              =   1.1274387050941E-01
(PID.TID 0000.0001) %MON trAdv_CFL_v_max              =   6.9344106203124E-02
(PID.TID 0000.0001) %MON trAdv_CFL_w_max              =   2.1180837576136E-01
(PID.TID 0000.0001) %MON advcfl_uvel_max              =   1.1583104368506E-01
(PID.TID 0000.0001) %MON advcfl_vvel_max              =   6.4737446263865E-02
(PID.TID 0000.0001) %MON advcfl_wvel_max              =   2.1309649171468E-01
(PID.TID 0000.0001) %MON advcfl_W_hf_max              =   2.2252746838505E-01
(PID.TID 0000.0001) %MON pe_b_mean                    =   4.3498167793201E-04
(PID.TID 0000.0001) %MON ke_max                       =   6.6247104263800E-01
(PID.TID 0000.0001) %MON ke_mean                      =   5.1013762110948E-04
(PID.TID 0000.0001) %MON ke_vol                       =   1.3349971833155E+18
(PID.TID 0000.0001) %MON vort_r_min                   =  -4.0720408439618E-05
(PID.TID 0000.0001) %MON vort_r_max                   =   2.6379300521847E-05
(PID.TID 0000.0001) %MON vort_a_mean                  =  -1.9727864647440E-05
(PID.TID 0000.0001) %MON vort_a_sd                    =   7.4543325217891E-05
(PID.TID 0000.0001) %MON vort_p_mean                  =  -2.1760537851766E-05
(PID.TID 0000.0001) %MON vort_p_sd                    =   9.7241390118563E-05
(PID.TID 0000.0001) %MON surfExpan_theta_mean         =   7.9401771814291E-08
(PID.TID 0000.0001) %MON surfExpan_salt_mean          =   4.3186752731919E-08
(PID.TID 0000.0001) // =======================================================
(PID.TID 0000.0001) // End MONITOR dynamic field statistics
(PID.TID 0000.0001) // =======================================================
(PID.TID 0000.0001) // =======================================================
(PID.TID 0000.0001) // Begin MONITOR SEAICE statistics
(PID.TID 0000.0001) // =======================================================
(PID.TID 0000.0001) %MON seaice_tsnumber              =                    20
(PID.TID 0000.0001) %MON seaice_time_sec              =   7.2000000000000E+04
(PID.TID 0000.0001) %MON seaice_uice_max              =   4.0000000000000E-01
(PID.TID 0000.0001) %MON seaice_uice_min              =  -4.0000000000000E-01
(PID.TID 0000.0001) %MON seaice_uice_mean             =   2.7526285164685E-03
(PID.TID 0000.0001) %MON seaice_uice_sd               =   1.8716651163903E-01
(PID.TID 0000.0001) %MON seaice_uice_del2             =   1.9337888827413E-04
(PID.TID 0000.0001) %MON seaice_vice_max              =   4.0000000000000E-01
(PID.TID 0000.0001) %MON seaice_vice_min              =  -4.0000000000000E-01
(PID.TID 0000.0001) %MON seaice_vice_mean             =  -1.3177431478457E-02
(PID.TID 0000.0001) %MON seaice_vice_sd               =   2.0611560631324E-01
(PID.TID 0000.0001) %MON seaice_vice_del2             =   2.0896951847356E-04
(PID.TID 0000.0001) %MON seaice_area_max              =   9.5000000000000E-01
(PID.TID 0000.0001) %MON seaice_area_min              =   0.0000000000000E+00
(PID.TID 0000.0001) %MON seaice_area_mean             =   3.9095957456510E-02
(PID.TID 0000.0001) %MON seaice_area_sd               =   1.7893864530566E-01
(PID.TID 0000.0001) %MON seaice_area_del2             =   2.6461516176694E-04
(PID.TID 0000.0001) %MON seaice_heff_max              =   3.9848576994151E+00
(PID.TID 0000.0001) %MON seaice_heff_min              =   0.0000000000000E+00
(PID.TID 0000.0001) %MON seaice_heff_mean             =   5.3506348721331E-02
(PID.TID 0000.0001) %MON seaice_heff_sd               =   3.0558728201883E-01
(PID.TID 0000.0001) %MON seaice_heff_del2             =   2.9257600089044E-04
(PID.TID 0000.0001) %MON seaice_hsnow_max             =   9.7545577945963E-01
(PID.TID 0000.0001) %MON seaice_hsnow_min             =  -2.1216020366984E-05
(PID.TID 0000.0001) %MON seaice_hsnow_mean            =   5.2402988327634E-03
(PID.TID 0000.0001) %MON seaice_hsnow_sd              =   3.1454601849321E-02
(PID.TID 0000.0001) %MON seaice_hsnow_del2            =   5.2292376016079E-05
(PID.TID 0000.0001) // =======================================================
(PID.TID 0000.0001) // End MONITOR SEAICE statistics
(PID.TID 0000.0001) // =======================================================
(PID.TID 0000.0001) // =======================================================
(PID.TID 0000.0001) // Begin MONITOR EXF statistics
(PID.TID 0000.0001) // =======================================================
(PID.TID 0000.0001) %MON exf_tsnumber                 =                    20
(PID.TID 0000.0001) %MON exf_time_sec                 =   7.2000000000000E+04
(PID.TID 0000.0001) %MON exf_ustress_max              =   1.8443279248108E+00
(PID.TID 0000.0001) %MON exf_ustress_min              =  -1.9016743414932E+00
(PID.TID 0000.0001) %MON exf_ustress_mean             =   1.3525199409229E-02
(PID.TID 0000.0001) %MON exf_ustress_sd               =   1.0351170788735E-01
(PID.TID 0000.0001) %MON exf_ustress_del2             =   1.0414574146126E-04
(PID.TID 0000.0001) %MON exf_vstress_max              =   1.3186046160734E+00
(PID.TID 0000.0001) %MON exf_vstress_min              =  -7.0397365589937E-01
(PID.TID 0000.0001) %MON exf_vstress_mean             =   1.2662352164465E-03
(PID.TID 0000.0001) %MON exf_vstress_sd               =   1.1764590615967E-01
(PID.TID 0000.0001) %MON exf_vstress_del2             =   9.1744623685077E-05
(PID.TID 0000.0001) %MON exf_hflux_max                =   1.5127589984577E+03
(PID.TID 0000.0001) %MON exf_hflux_min                =  -6.3994339472267E+02
(PID.TID 0000.0001) %MON exf_hflux_mean               =   2.3866076639806E+01
(PID.TID 0000.0001) %MON exf_hflux_sd                 =   2.5071810783518E+02
(PID.TID 0000.0001) %MON exf_hflux_del2               =   4.3254137020647E-01
(PID.TID 0000.0001) %MON exf_sflux_max                =   2.2316350519840E-07
(PID.TID 0000.0001) %MON exf_sflux_min                =  -3.9045154011898E-06
(PID.TID 0000.0001) %MON exf_sflux_mean               =   6.3687200038697E-09
(PID.TID 0000.0001) %MON exf_sflux_sd                 =   9.2024930674152E-08
(PID.TID 0000.0001) %MON exf_sflux_del2               =   2.4284808795856E-10
(PID.TID 0000.0001) %MON exf_wspeed_max               =   2.2851195653280E+01
(PID.TID 0000.0001) %MON exf_wspeed_min               =   3.3874986569087E-01
(PID.TID 0000.0001) %MON exf_wspeed_mean              =   6.9221934786883E+00
(PID.TID 0000.0001) %MON exf_wspeed_sd                =   3.1165813157056E+00
(PID.TID 0000.0001) %MON exf_wspeed_del2              =   1.1954598828924E-02
(PID.TID 0000.0001) %MON exf_atemp_max                =   3.0606566785177E+02
(PID.TID 0000.0001) %MON exf_atemp_min                =   2.3042757962545E+02
(PID.TID 0000.0001) %MON exf_atemp_mean               =   2.8913340565828E+02
(PID.TID 0000.0001) %MON exf_atemp_sd                 =   1.2379737350610E+01
(PID.TID 0000.0001) %MON exf_atemp_del2               =   2.6668154671460E-02
(PID.TID 0000.0001) %MON exf_aqh_max                  =   2.2692978382111E-02
(PID.TID 0000.0001) %MON exf_aqh_min                  =   8.5301179448531E-05
(PID.TID 0000.0001) %MON exf_aqh_mean                 =   1.0837590160693E-02
(PID.TID 0000.0001) %MON exf_aqh_sd                   =   5.6180380958750E-03
(PID.TID 0000.0001) %MON exf_aqh_del2                 =   1.4549971575106E-05
(PID.TID 0000.0001) %MON exf_lwflux_max               =   2.2659889434124E+02
(PID.TID 0000.0001) %MON exf_lwflux_min               =  -2.2595781070446E+01
(PID.TID 0000.0001) %MON exf_lwflux_mean              =   4.9179111252759E+01
(PID.TID 0000.0001) %MON exf_lwflux_sd                =   2.9624975101997E+01
(PID.TID 0000.0001) %MON exf_lwflux_del2              =   1.0359132840090E-01
(PID.TID 0000.0001) %MON exf_evap_max                 =   2.3565357049034E-07
(PID.TID 0000.0001) %MON exf_evap_min                 =  -3.3682146896841E-08
(PID.TID 0000.0001) %MON exf_evap_mean                =   4.5910740385916E-08
(PID.TID 0000.0001) %MON exf_evap_sd                  =   2.9224004804535E-08
(PID.TID 0000.0001) %MON exf_evap_del2                =   7.3580124886361E-11
(PID.TID 0000.0001) %MON exf_precip_max               =   3.9321054619753E-06
(PID.TID 0000.0001) %MON exf_precip_min               =  -1.4604523664493E-08
(PID.TID 0000.0001) %MON exf_precip_mean              =   3.6504108272437E-08
(PID.TID 0000.0001) %MON exf_precip_sd                =   8.1532658719785E-08
(PID.TID 0000.0001) %MON exf_precip_del2              =   2.3691178161278E-10
(PID.TID 0000.0001) %MON exf_swflux_max               =   2.5153650342372E+01
(PID.TID 0000.0001) %MON exf_swflux_min               =  -8.0144697964648E+02
(PID.TID 0000.0001) %MON exf_swflux_mean              =  -1.7005203111800E+02
(PID.TID 0000.0001) %MON exf_swflux_sd                =   2.0511597937872E+02
(PID.TID 0000.0001) %MON exf_swflux_del2              =   3.6043482414995E-01
(PID.TID 0000.0001) %MON exf_swdown_max               =   8.6506985473633E+02
(PID.TID 0000.0001) %MON exf_swdown_min               =  -3.3709831237793E+01
(PID.TID 0000.0001) %MON exf_swdown_mean              =   1.8414374161429E+02
(PID.TID 0000.0001) %MON exf_swdown_sd                =   2.2165421926185E+02
(PID.TID 0000.0001) %MON exf_swdown_del2              =   3.9051285582755E-01
(PID.TID 0000.0001) %MON exf_lwdown_max               =   4.7729733276367E+02
(PID.TID 0000.0001) %MON exf_lwdown_min               =   7.3067081451416E+01
(PID.TID 0000.0001) %MON exf_lwdown_mean              =   3.6253134927759E+02
(PID.TID 0000.0001) %MON exf_lwdown_sd                =   6.6448800487270E+01
(PID.TID 0000.0001) %MON exf_lwdown_del2              =   4.8440745949346E-01
(PID.TID 0000.0001) %MON exf_runoff_max               =   2.0528513445125E-06
(PID.TID 0000.0001) %MON exf_runoff_min               =   0.0000000000000E+00
(PID.TID 0000.0001) %MON exf_runoff_mean              =   3.0379121096100E-09
(PID.TID 0000.0001) %MON exf_runoff_sd                =   2.4111192286964E-08
(PID.TID 0000.0001) %MON exf_runoff_del2              =   1.8177048223186E-11
(PID.TID 0000.0001) // =======================================================
(PID.TID 0000.0001) // End MONITOR EXF statistics
(PID.TID 0000.0001) // =======================================================
 SEAICE_LSR: Residual Initial ipass,Uice,Vice=    1  1.19702502E-01  1.55890530E-01
 SEAICE_LSR: Residual FrDrift U_fd,V_fd=  7.17927701E+01  7.14397917E+01
 SEAICE_LSR (ipass=   1) iters,dU,Resid=   394  1.98688191E-04  2.14887315E-03
 SEAICE_LSR (ipass=   1) iters,dV,Resid=   394  7.62645842E-05  1.05995428E-03
 SEAICE_LSR: Residual Initial ipass,Uice,Vice=    2  2.14921208E-01  1.81088768E-01
 SEAICE_LSR: Residual FrDrift U_fd,V_fd=  6.91416786E+01  6.70590665E+01
 SEAICE_LSR (ipass=   2) iters,dU,Resid=    70  1.23725377E-04  9.66682188E-04
 SEAICE_LSR (ipass=   2) iters,dV,Resid=    70  1.97736903E-04  1.83437994E-03
 cg2d: Sum(rhs),rhsMax =   3.91732932155603E+00  3.32416531766493E-01
 cg2d: Sum(rhs),rhsMax =   3.95569047492343E+00  3.33053508011513E-01
(PID.TID 0000.0001)      cg2d_init_res =   2.77069062624972E-01
(PID.TID 0000.0001)      cg2d_iters(min,last) =      -1      87
(PID.TID 0000.0001)      cg2d_last_res =   6.45484521575396E-06
(PID.TID 0000.0001) // =======================================================
(PID.TID 0000.0001) // Begin MONITOR dynamic field statistics
(PID.TID 0000.0001) // =======================================================
(PID.TID 0000.0001) %MON time_tsnumber                =                    22
(PID.TID 0000.0001) %MON time_secondsf                =   7.9200000000000E+04
(PID.TID 0000.0001) %MON dynstat_eta_max              =   1.1790651634413E+00
(PID.TID 0000.0001) %MON dynstat_eta_min              =  -4.0380080649270E+00
(PID.TID 0000.0001) %MON dynstat_eta_mean             =  -2.0020979737432E-03
(PID.TID 0000.0001) %MON dynstat_eta_sd               =   7.4362124896896E-01
(PID.TID 0000.0001) %MON dynstat_eta_del2             =   2.8347721751013E-04
(PID.TID 0000.0001) %MON dynstat_uvel_max             =   1.2900508128690E+00
(PID.TID 0000.0001) %MON dynstat_uvel_min             =  -7.0588352022266E-01
(PID.TID 0000.0001) %MON dynstat_uvel_mean            =   1.4028075976658E-03
(PID.TID 0000.0001) %MON dynstat_uvel_sd              =   2.1717815603668E-02
(PID.TID 0000.0001) %MON dynstat_uvel_del2            =   1.4336887377663E-05
(PID.TID 0000.0001) %MON dynstat_vvel_max             =   1.0936631248670E+00
(PID.TID 0000.0001) %MON dynstat_vvel_min             =  -9.2077883492040E-01
(PID.TID 0000.0001) %MON dynstat_vvel_mean            =   1.2396507282655E-03
(PID.TID 0000.0001) %MON dynstat_vvel_sd              =   2.4049451129303E-02
(PID.TID 0000.0001) %MON dynstat_vvel_del2            =   1.5162539031559E-05
(PID.TID 0000.0001) %MON dynstat_wvel_max             =   7.8018605389174E-04
(PID.TID 0000.0001) %MON dynstat_wvel_min             =  -1.0735845052677E-03
(PID.TID 0000.0001) %MON dynstat_wvel_mean            =  -3.8595528579058E-09
(PID.TID 0000.0001) %MON dynstat_wvel_sd              =   2.9092948089625E-05
(PID.TID 0000.0001) %MON dynstat_wvel_del2            =   3.2030640607424E-08
(PID.TID 0000.0001) %MON dynstat_theta_max            =   3.2656926356229E+01
(PID.TID 0000.0001) %MON dynstat_theta_min            =  -2.0423698525530E+00
(PID.TID 0000.0001) %MON dynstat_theta_mean           =   3.5906482503086E+00
(PID.TID 0000.0001) %MON dynstat_theta_sd             =   4.4366437818589E+00
(PID.TID 0000.0001) %MON dynstat_theta_del2           =   1.0664047626774E-04
(PID.TID 0000.0001) %MON dynstat_salt_max             =   4.0711490079625E+01
(PID.TID 0000.0001) %MON dynstat_salt_min             =   1.7471617898155E+01
(PID.TID 0000.0001) %MON dynstat_salt_mean            =   3.4725693072018E+01
(PID.TID 0000.0001) %MON dynstat_salt_sd              =   3.7886814512644E-01
(PID.TID 0000.0001) %MON dynstat_salt_del2            =   2.6173672452657E-05
(PID.TID 0000.0001) %MON dynstat_sst_max              =   3.2656926356229E+01
(PID.TID 0000.0001) %MON dynstat_sst_min              =  -1.9610698873542E+00
(PID.TID 0000.0001) %MON dynstat_sst_mean             =   1.8516923279072E+01
(PID.TID 0000.0001) %MON dynstat_sst_sd               =   1.0080542156387E+01
(PID.TID 0000.0001) %MON dynstat_sst_del2             =   8.8636189665732E-04
(PID.TID 0000.0001) %MON dynstat_sss_max              =   3.9713561668116E+01
(PID.TID 0000.0001) %MON dynstat_sss_min              =   1.7471617898155E+01
(PID.TID 0000.0001) %MON dynstat_sss_mean             =   3.4721279153229E+01
(PID.TID 0000.0001) %MON dynstat_sss_sd               =   1.2190171091099E+00
(PID.TID 0000.0001) %MON dynstat_sss_del2             =   3.9397021836878E-04
(PID.TID 0000.0001) %MON forcing_qnet_max             =   8.6702103362552E+02
(PID.TID 0000.0001) %MON forcing_qnet_min             =  -7.7999782670191E+02
(PID.TID 0000.0001) %MON forcing_qnet_mean            =   1.3206294768809E+01
(PID.TID 0000.0001) %MON forcing_qnet_sd              =   2.5796237244781E+02
(PID.TID 0000.0001) %MON forcing_qnet_del2            =   1.5073432932394E-01
(PID.TID 0000.0001) %MON forcing_qsw_max              =   2.5168315328727E+01
(PID.TID 0000.0001) %MON forcing_qsw_min              =  -9.1483104725304E+02
(PID.TID 0000.0001) %MON forcing_qsw_mean             =  -1.6462659158217E+02
(PID.TID 0000.0001) %MON forcing_qsw_sd               =   2.3550634478038E+02
(PID.TID 0000.0001) %MON forcing_qsw_del2             =   8.9843511935032E-02
(PID.TID 0000.0001) %MON forcing_empmr_max            =   1.9302361773565E-03
(PID.TID 0000.0001) %MON forcing_empmr_min            =  -4.6369443037630E-03
(PID.TID 0000.0001) %MON forcing_empmr_mean           =   5.5496750513789E-06
(PID.TID 0000.0001) %MON forcing_empmr_sd             =   1.1197049881522E-04
(PID.TID 0000.0001) %MON forcing_empmr_del2           =   4.5706812322456E-07
(PID.TID 0000.0001) %MON forcing_fu_max               =   1.4520845908027E+00
(PID.TID 0000.0001) %MON forcing_fu_min               =  -1.5339757951029E+00
(PID.TID 0000.0001) %MON forcing_fu_mean              =   1.2807647723822E-02
(PID.TID 0000.0001) %MON forcing_fu_sd                =   1.1143827772969E-01
(PID.TID 0000.0001) %MON forcing_fu_del2              =   1.1544256862845E-04
(PID.TID 0000.0001) %MON forcing_fv_max               =   1.5463151262990E+00
(PID.TID 0000.0001) %MON forcing_fv_min               =  -9.3578290603281E-01
(PID.TID 0000.0001) %MON forcing_fv_mean              =   1.8886502873719E-03
(PID.TID 0000.0001) %MON forcing_fv_sd                =   1.2627022778680E-01
(PID.TID 0000.0001) %MON forcing_fv_del2              =   1.1665517600918E-04
(PID.TID 0000.0001) %MON trAdv_CFL_u_max              =   1.1620733826906E-01
(PID.TID 0000.0001) %MON trAdv_CFL_v_max              =   6.4797039201204E-02
(PID.TID 0000.0001) %MON trAdv_CFL_w_max              =   2.0912822639885E-01
(PID.TID 0000.0001) %MON advcfl_uvel_max              =   1.1932176474134E-01
(PID.TID 0000.0001) %MON advcfl_vvel_max              =   6.0195159148970E-02
(PID.TID 0000.0001) %MON advcfl_wvel_max              =   2.0994982169714E-01
(PID.TID 0000.0001) %MON advcfl_W_hf_max              =   2.1984717614621E-01
(PID.TID 0000.0001) %MON pe_b_mean                    =   4.3450146878409E-04
(PID.TID 0000.0001) %MON ke_max                       =   7.1349265992366E-01
(PID.TID 0000.0001) %MON ke_mean                      =   5.0801696955388E-04
(PID.TID 0000.0001) %MON ke_vol                       =   1.3349971671116E+18
(PID.TID 0000.0001) %MON vort_r_min                   =  -4.1685536815286E-05
(PID.TID 0000.0001) %MON vort_r_max                   =   2.7318319297577E-05
(PID.TID 0000.0001) %MON vort_a_mean                  =  -1.9727864647440E-05
(PID.TID 0000.0001) %MON vort_a_sd                    =   7.4543317707059E-05
(PID.TID 0000.0001) %MON vort_p_mean                  =  -2.1760538024946E-05
(PID.TID 0000.0001) %MON vort_p_sd                    =   9.7241583702661E-05
(PID.TID 0000.0001) %MON surfExpan_theta_mean         =   7.1457962894960E-08
(PID.TID 0000.0001) %MON surfExpan_salt_mean          =   4.0724296599305E-08
(PID.TID 0000.0001) // =======================================================
(PID.TID 0000.0001) // End MONITOR dynamic field statistics
(PID.TID 0000.0001) // =======================================================
(PID.TID 0000.0001) // =======================================================
(PID.TID 0000.0001) // Begin MONITOR SEAICE statistics
(PID.TID 0000.0001) // =======================================================
(PID.TID 0000.0001) %MON seaice_tsnumber              =                    22
(PID.TID 0000.0001) %MON seaice_time_sec              =   7.9200000000000E+04
(PID.TID 0000.0001) %MON seaice_uice_max              =   4.0000000000000E-01
(PID.TID 0000.0001) %MON seaice_uice_min              =  -4.0000000000000E-01
(PID.TID 0000.0001) %MON seaice_uice_mean             =   3.0101951549124E-03
(PID.TID 0000.0001) %MON seaice_uice_sd               =   1.8535194575711E-01
(PID.TID 0000.0001) %MON seaice_uice_del2             =   1.9593530009136E-04
(PID.TID 0000.0001) %MON seaice_vice_max              =   4.0000000000000E-01
(PID.TID 0000.0001) %MON seaice_vice_min              =  -4.0000000000000E-01
(PID.TID 0000.0001) %MON seaice_vice_mean             =  -1.5490831127668E-02
(PID.TID 0000.0001) %MON seaice_vice_sd               =   2.0536380627680E-01
(PID.TID 0000.0001) %MON seaice_vice_del2             =   2.1681662714465E-04
(PID.TID 0000.0001) %MON seaice_area_max              =   9.5000000000000E-01
(PID.TID 0000.0001) %MON seaice_area_min              =   0.0000000000000E+00
(PID.TID 0000.0001) %MON seaice_area_mean             =   3.9061467901823E-02
(PID.TID 0000.0001) %MON seaice_area_sd               =   1.7886530256900E-01
(PID.TID 0000.0001) %MON seaice_area_del2             =   2.6628998458946E-04
(PID.TID 0000.0001) %MON seaice_heff_max              =   4.1033573154969E+00
(PID.TID 0000.0001) %MON seaice_heff_min              =   0.0000000000000E+00
(PID.TID 0000.0001) %MON seaice_heff_mean             =   5.3515338636665E-02
(PID.TID 0000.0001) %MON seaice_heff_sd               =   3.0571656959245E-01
(PID.TID 0000.0001) %MON seaice_heff_del2             =   2.9549397356472E-04
(PID.TID 0000.0001) %MON seaice_hsnow_max             =   9.7538743422538E-01
(PID.TID 0000.0001) %MON seaice_hsnow_min             =  -2.2761365502329E-05
(PID.TID 0000.0001) %MON seaice_hsnow_mean            =   5.2398662998081E-03
(PID.TID 0000.0001) %MON seaice_hsnow_sd              =   3.1452616578208E-02
(PID.TID 0000.0001) %MON seaice_hsnow_del2            =   5.2435465690185E-05
(PID.TID 0000.0001) // =======================================================
(PID.TID 0000.0001) // End MONITOR SEAICE statistics
(PID.TID 0000.0001) // =======================================================
(PID.TID 0000.0001) // =======================================================
(PID.TID 0000.0001) // Begin MONITOR EXF statistics
(PID.TID 0000.0001) // =======================================================
(PID.TID 0000.0001) %MON exf_tsnumber                 =                    22
(PID.TID 0000.0001) %MON exf_time_sec                 =   7.9200000000000E+04
(PID.TID 0000.0001) %MON exf_ustress_max              =   1.9565795026016E+00
(PID.TID 0000.0001) %MON exf_ustress_min              =  -2.0208912116536E+00
(PID.TID 0000.0001) %MON exf_ustress_mean             =   1.3702589873630E-02
(PID.TID 0000.0001) %MON exf_ustress_sd               =   1.0376167081242E-01
(PID.TID 0000.0001) %MON exf_ustress_del2             =   1.0388196712319E-04
(PID.TID 0000.0001) %MON exf_vstress_max              =   1.2940908261765E+00
(PID.TID 0000.0001) %MON exf_vstress_min              =  -7.1732214093208E-01
(PID.TID 0000.0001) %MON exf_vstress_mean             =   9.4120582658691E-04
(PID.TID 0000.0001) %MON exf_vstress_sd               =   1.1761272963853E-01
(PID.TID 0000.0001) %MON exf_vstress_del2             =   9.1569711851294E-05
(PID.TID 0000.0001) %MON exf_hflux_max                =   1.4470104328730E+03
(PID.TID 0000.0001) %MON exf_hflux_min                =  -7.1097033872165E+02
(PID.TID 0000.0001) %MON exf_hflux_mean               =   2.6044560050044E+01
(PID.TID 0000.0001) %MON exf_hflux_sd                 =   2.5110527539486E+02
(PID.TID 0000.0001) %MON exf_hflux_del2               =   4.3686316563739E-01
(PID.TID 0000.0001) %MON exf_sflux_max                =   2.2704471438701E-07
(PID.TID 0000.0001) %MON exf_sflux_min                =  -4.1965514840048E-06
(PID.TID 0000.0001) %MON exf_sflux_mean               =   5.8944495668869E-09
(PID.TID 0000.0001) %MON exf_sflux_sd                 =   9.3100129226074E-08
(PID.TID 0000.0001) %MON exf_sflux_del2               =   2.4326841418225E-10
(PID.TID 0000.0001) %MON exf_wspeed_max               =   2.3031285285950E+01
(PID.TID 0000.0001) %MON exf_wspeed_min               =   2.5766629477342E-01
(PID.TID 0000.0001) %MON exf_wspeed_mean              =   6.9269860489548E+00
(PID.TID 0000.0001) %MON exf_wspeed_sd                =   3.1199967300235E+00
(PID.TID 0000.0001) %MON exf_wspeed_del2              =   1.1950810123975E-02
(PID.TID 0000.0001) %MON exf_atemp_max                =   3.0593520488739E+02
(PID.TID 0000.0001) %MON exf_atemp_min                =   2.3004134915670E+02
(PID.TID 0000.0001) %MON exf_atemp_mean               =   2.8911853031203E+02
(PID.TID 0000.0001) %MON exf_atemp_sd                 =   1.2383793755430E+01
(PID.TID 0000.0001) %MON exf_atemp_del2               =   2.6674442779684E-02
(PID.TID 0000.0001) %MON exf_aqh_max                  =   2.2358352939288E-02
(PID.TID 0000.0001) %MON exf_aqh_min                  =   8.2732822193066E-05
(PID.TID 0000.0001) %MON exf_aqh_mean                 =   1.0829755744957E-02
(PID.TID 0000.0001) %MON exf_aqh_sd                   =   5.6151977248533E-03
(PID.TID 0000.0001) %MON exf_aqh_del2                 =   1.4541687878400E-05
(PID.TID 0000.0001) %MON exf_lwflux_max               =   2.2490865958444E+02
(PID.TID 0000.0001) %MON exf_lwflux_min               =  -2.1556064436220E+01
(PID.TID 0000.0001) %MON exf_lwflux_mean              =   4.9112225980668E+01
(PID.TID 0000.0001) %MON exf_lwflux_sd                =   2.9600551781603E+01
(PID.TID 0000.0001) %MON exf_lwflux_del2              =   1.0355298116934E-01
(PID.TID 0000.0001) %MON exf_evap_max                 =   2.3236354844698E-07
(PID.TID 0000.0001) %MON exf_evap_min                 =  -3.1441983185069E-08
(PID.TID 0000.0001) %MON exf_evap_mean                =   4.6076745384575E-08
(PID.TID 0000.0001) %MON exf_evap_sd                  =   2.9329830925950E-08
(PID.TID 0000.0001) %MON exf_evap_del2                =   7.3798374345753E-11
(PID.TID 0000.0001) %MON exf_precip_max               =   4.2274263402457E-06
(PID.TID 0000.0001) %MON exf_precip_min               =  -1.4760895468887E-08
(PID.TID 0000.0001) %MON exf_precip_mean              =   3.7145288133704E-08
(PID.TID 0000.0001) %MON exf_precip_sd                =   8.2917756693338E-08
(PID.TID 0000.0001) %MON exf_precip_del2              =   2.3774274254761E-10
(PID.TID 0000.0001) %MON exf_swflux_max               =   2.5149015467190E+01
(PID.TID 0000.0001) %MON exf_swflux_min               =  -8.1587461361645E+02
(PID.TID 0000.0001) %MON exf_swflux_mean              =  -1.6840939216785E+02
(PID.TID 0000.0001) %MON exf_swflux_sd                =   2.0567844891466E+02
(PID.TID 0000.0001) %MON exf_swflux_del2              =   3.6215726613653E-01
(PID.TID 0000.0001) %MON exf_swdown_max               =   8.8158917744954E+02
(PID.TID 0000.0001) %MON exf_swdown_min               =  -3.3703650156657E+01
(PID.TID 0000.0001) %MON exf_swdown_mean              =   1.8238703753360E+02
(PID.TID 0000.0001) %MON exf_swdown_sd                =   2.2230743845358E+02
(PID.TID 0000.0001) %MON exf_swdown_del2              =   3.9258500109717E-01
(PID.TID 0000.0001) %MON exf_lwdown_max               =   4.8273322041829E+02
(PID.TID 0000.0001) %MON exf_lwdown_min               =   7.4809593200684E+01
(PID.TID 0000.0001) %MON exf_lwdown_mean              =   3.6259192809920E+02
(PID.TID 0000.0001) %MON exf_lwdown_sd                =   6.6401427670611E+01
(PID.TID 0000.0001) %MON exf_lwdown_del2              =   4.8456514760251E-01
(PID.TID 0000.0001) %MON exf_runoff_max               =   2.0560055033105E-06
(PID.TID 0000.0001) %MON exf_runoff_min               =   0.0000000000000E+00
(PID.TID 0000.0001) %MON exf_runoff_mean              =   3.0370076839837E-09
(PID.TID 0000.0001) %MON exf_runoff_sd                =   2.4140551135715E-08
(PID.TID 0000.0001) %MON exf_runoff_del2              =   1.8187580407543E-11
(PID.TID 0000.0001) // =======================================================
(PID.TID 0000.0001) // End MONITOR EXF statistics
(PID.TID 0000.0001) // =======================================================
 SEAICE_LSR: Residual Initial ipass,Uice,Vice=    1  1.22301017E-01  1.56887874E-01
 SEAICE_LSR: Residual FrDrift U_fd,V_fd=  6.90482591E+01  7.25738293E+01
 SEAICE_LSR (ipass=   1) iters,dU,Resid=   408  1.97690210E-04  2.17513539E-03
 SEAICE_LSR (ipass=   1) iters,dV,Resid=   408  6.59290092E-05  9.48221812E-04
 SEAICE_LSR: Residual Initial ipass,Uice,Vice=    2  2.11617564E-01  2.33715019E-01
 SEAICE_LSR: Residual FrDrift U_fd,V_fd=  6.58549651E+01  6.80206533E+01
 SEAICE_LSR (ipass=   2) iters,dU,Resid=    82  1.19355367E-04  8.31714383E-04
 SEAICE_LSR (ipass=   2) iters,dV,Resid=    82  1.95074565E-04  1.38961227E-03
 cg2d: Sum(rhs),rhsMax =   3.99479625625335E+00  3.31495275060401E-01
 cg2d: Sum(rhs),rhsMax =   4.03469846236249E+00  3.31692538749052E-01
(PID.TID 0000.0001)      cg2d_init_res =   2.79991870330440E-01
(PID.TID 0000.0001)      cg2d_iters(min,last) =      -1      86
(PID.TID 0000.0001)      cg2d_last_res =   6.60053863548244E-06
(PID.TID 0000.0001) // =======================================================
(PID.TID 0000.0001) // Begin MONITOR dynamic field statistics
(PID.TID 0000.0001) // =======================================================
(PID.TID 0000.0001) %MON time_tsnumber                =                    24
(PID.TID 0000.0001) %MON time_secondsf                =   8.6400000000000E+04
(PID.TID 0000.0001) %MON dynstat_eta_max              =   1.1733932088740E+00
(PID.TID 0000.0001) %MON dynstat_eta_min              =  -4.1384981790095E+00
(PID.TID 0000.0001) %MON dynstat_eta_mean             =  -2.0420863733826E-03
(PID.TID 0000.0001) %MON dynstat_eta_sd               =   7.4348197121756E-01
(PID.TID 0000.0001) %MON dynstat_eta_del2             =   2.8645517019917E-04
(PID.TID 0000.0001) %MON dynstat_uvel_max             =   1.2802392172198E+00
(PID.TID 0000.0001) %MON dynstat_uvel_min             =  -7.1400897910489E-01
(PID.TID 0000.0001) %MON dynstat_uvel_mean            =   1.3877423329974E-03
(PID.TID 0000.0001) %MON dynstat_uvel_sd              =   2.1664816582645E-02
(PID.TID 0000.0001) %MON dynstat_uvel_del2            =   1.4220227445714E-05
(PID.TID 0000.0001) %MON dynstat_vvel_max             =   1.1073341658966E+00
(PID.TID 0000.0001) %MON dynstat_vvel_min             =  -9.1925379165420E-01
(PID.TID 0000.0001) %MON dynstat_vvel_mean            =   1.2382956207666E-03
(PID.TID 0000.0001) %MON dynstat_vvel_sd              =   2.3971152202881E-02
(PID.TID 0000.0001) %MON dynstat_vvel_del2            =   1.5004617153650E-05
(PID.TID 0000.0001) %MON dynstat_wvel_max             =   7.6538491477898E-04
(PID.TID 0000.0001) %MON dynstat_wvel_min             =  -1.0760804834107E-03
(PID.TID 0000.0001) %MON dynstat_wvel_mean            =  -2.1613699826148E-09
(PID.TID 0000.0001) %MON dynstat_wvel_sd              =   2.8781702094406E-05
(PID.TID 0000.0001) %MON dynstat_wvel_del2            =   3.1188041612631E-08
(PID.TID 0000.0001) %MON dynstat_theta_max            =   3.2636947171102E+01
(PID.TID 0000.0001) %MON dynstat_theta_min            =  -2.0423684687832E+00
(PID.TID 0000.0001) %MON dynstat_theta_mean           =   3.5906434506341E+00
(PID.TID 0000.0001) %MON dynstat_theta_sd             =   4.4365884141675E+00
(PID.TID 0000.0001) %MON dynstat_theta_del2           =   1.0644342402311E-04
(PID.TID 0000.0001) %MON dynstat_salt_max             =   4.0711486031244E+01
(PID.TID 0000.0001) %MON dynstat_salt_min             =   1.7476901313860E+01
(PID.TID 0000.0001) %MON dynstat_salt_mean            =   3.4725693441430E+01
(PID.TID 0000.0001) %MON dynstat_salt_sd              =   3.7886712460312E-01
(PID.TID 0000.0001) %MON dynstat_salt_del2            =   2.6090222973528E-05
(PID.TID 0000.0001) %MON dynstat_sst_max              =   3.2636947171102E+01
(PID.TID 0000.0001) %MON dynstat_sst_min              =  -1.9610625687754E+00
(PID.TID 0000.0001) %MON dynstat_sst_mean             =   1.8515981554212E+01
(PID.TID 0000.0001) %MON dynstat_sst_sd               =   1.0078400303771E+01
(PID.TID 0000.0001) %MON dynstat_sst_del2             =   8.8582606019489E-04
(PID.TID 0000.0001) %MON dynstat_sss_max              =   3.9714032092808E+01
(PID.TID 0000.0001) %MON dynstat_sss_min              =   1.7476901313860E+01
(PID.TID 0000.0001) %MON dynstat_sss_mean             =   3.4721371994974E+01
(PID.TID 0000.0001) %MON dynstat_sss_sd               =   1.2189570344060E+00
(PID.TID 0000.0001) %MON dynstat_sss_del2             =   3.9347673020137E-04
(PID.TID 0000.0001) %MON forcing_qnet_max             =   7.6832244736655E+02
(PID.TID 0000.0001) %MON forcing_qnet_min             =  -6.6925377264259E+02
(PID.TID 0000.0001) %MON forcing_qnet_mean            =   8.8547526305373E+00
(PID.TID 0000.0001) %MON forcing_qnet_sd              =   2.1179457515264E+02
(PID.TID 0000.0001) %MON forcing_qnet_del2            =   1.4087056612293E-01
(PID.TID 0000.0001) %MON forcing_qsw_max              =   2.5129715623038E+01
(PID.TID 0000.0001) %MON forcing_qsw_min              =  -7.3808833258554E+02
(PID.TID 0000.0001) %MON forcing_qsw_mean             =  -1.6973533796118E+02
(PID.TID 0000.0001) %MON forcing_qsw_sd               =   1.8522816410365E+02
(PID.TID 0000.0001) %MON forcing_qsw_del2             =   7.6006110142937E-02
(PID.TID 0000.0001) %MON forcing_empmr_max            =   1.9370905973282E-03
(PID.TID 0000.0001) %MON forcing_empmr_min            =  -3.7569559267365E-03
(PID.TID 0000.0001) %MON forcing_empmr_mean           =   5.7726178255430E-06
(PID.TID 0000.0001) %MON forcing_empmr_sd             =   1.0496104756067E-04
(PID.TID 0000.0001) %MON forcing_empmr_del2           =   4.3251078777420E-07
(PID.TID 0000.0001) %MON forcing_fu_max               =   1.3396677441919E+00
(PID.TID 0000.0001) %MON forcing_fu_min               =  -1.6127020001011E+00
(PID.TID 0000.0001) %MON forcing_fu_mean              =   1.3091964847007E-02
(PID.TID 0000.0001) %MON forcing_fu_sd                =   1.0911253698108E-01
(PID.TID 0000.0001) %MON forcing_fu_del2              =   1.0891607097241E-04
(PID.TID 0000.0001) %MON forcing_fv_max               =   1.4777300318104E+00
(PID.TID 0000.0001) %MON forcing_fv_min               =  -8.9259072175519E-01
(PID.TID 0000.0001) %MON forcing_fv_mean              =   2.0790248509175E-03
(PID.TID 0000.0001) %MON forcing_fv_sd                =   1.2325955653478E-01
(PID.TID 0000.0001) %MON forcing_fv_del2              =   1.0734142269695E-04
(PID.TID 0000.0001) %MON trAdv_CFL_u_max              =   1.1521434836274E-01
(PID.TID 0000.0001) %MON trAdv_CFL_v_max              =   5.9413095459809E-02
(PID.TID 0000.0001) %MON trAdv_CFL_w_max              =   2.0681759659459E-01
(PID.TID 0000.0001) %MON advcfl_uvel_max              =   1.1841425249754E-01
(PID.TID 0000.0001) %MON advcfl_vvel_max              =   5.4815201110349E-02
(PID.TID 0000.0001) %MON advcfl_wvel_max              =   2.0743563503847E-01
(PID.TID 0000.0001) %MON advcfl_W_hf_max              =   2.1753644304976E-01
(PID.TID 0000.0001) %MON pe_b_mean                    =   4.3402920141314E-04
(PID.TID 0000.0001) %MON ke_max                       =   7.2123930522519E-01
(PID.TID 0000.0001) %MON ke_mean                      =   5.0507331880112E-04
(PID.TID 0000.0001) %MON ke_vol                       =   1.3349971530744E+18
(PID.TID 0000.0001) %MON vort_r_min                   =  -4.1293013176569E-05
(PID.TID 0000.0001) %MON vort_r_max                   =   2.7433970454899E-05
(PID.TID 0000.0001) %MON vort_a_mean                  =  -1.9727864647440E-05
(PID.TID 0000.0001) %MON vort_a_sd                    =   7.4543310883542E-05
(PID.TID 0000.0001) %MON vort_p_mean                  =  -2.1760538162289E-05
(PID.TID 0000.0001) %MON vort_p_sd                    =   9.7241760587029E-05
(PID.TID 0000.0001) %MON surfExpan_theta_mean         =   8.3832698777345E-08
(PID.TID 0000.0001) %MON surfExpan_salt_mean          =   3.5000357568411E-08
(PID.TID 0000.0001) // =======================================================
(PID.TID 0000.0001) // End MONITOR dynamic field statistics
(PID.TID 0000.0001) // =======================================================
(PID.TID 0000.0001) // =======================================================
(PID.TID 0000.0001) // Begin MONITOR SEAICE statistics
(PID.TID 0000.0001) // =======================================================
(PID.TID 0000.0001) %MON seaice_tsnumber              =                    24
(PID.TID 0000.0001) %MON seaice_time_sec              =   8.6400000000000E+04
(PID.TID 0000.0001) %MON seaice_uice_max              =   4.0000000000000E-01
(PID.TID 0000.0001) %MON seaice_uice_min              =  -4.0000000000000E-01
(PID.TID 0000.0001) %MON seaice_uice_mean             =   4.4954687701176E-03
(PID.TID 0000.0001) %MON seaice_uice_sd               =   1.8345550005449E-01
(PID.TID 0000.0001) %MON seaice_uice_del2             =   1.9043160433683E-04
(PID.TID 0000.0001) %MON seaice_vice_max              =   4.0000000000000E-01
(PID.TID 0000.0001) %MON seaice_vice_min              =  -4.0000000000000E-01
(PID.TID 0000.0001) %MON seaice_vice_mean             =  -1.5390369257492E-02
(PID.TID 0000.0001) %MON seaice_vice_sd               =   2.0479748332106E-01
(PID.TID 0000.0001) %MON seaice_vice_del2             =   2.1001741731395E-04
(PID.TID 0000.0001) %MON seaice_area_max              =   9.5000000000000E-01
(PID.TID 0000.0001) %MON seaice_area_min              =   0.0000000000000E+00
(PID.TID 0000.0001) %MON seaice_area_mean             =   3.9012899869657E-02
(PID.TID 0000.0001) %MON seaice_area_sd               =   1.7877973125891E-01
(PID.TID 0000.0001) %MON seaice_area_del2             =   2.6743257557715E-04
(PID.TID 0000.0001) %MON seaice_heff_max              =   4.2180444738578E+00
(PID.TID 0000.0001) %MON seaice_heff_min              =   0.0000000000000E+00
(PID.TID 0000.0001) %MON seaice_heff_mean             =   5.3523927574241E-02
(PID.TID 0000.0001) %MON seaice_heff_sd               =   3.0585326557500E-01
(PID.TID 0000.0001) %MON seaice_heff_del2             =   2.9879392277105E-04
(PID.TID 0000.0001) %MON seaice_hsnow_max             =   9.7478576114204E-01
(PID.TID 0000.0001) %MON seaice_hsnow_min             =  -2.9167026176431E-05
(PID.TID 0000.0001) %MON seaice_hsnow_mean            =   5.2393824705832E-03
(PID.TID 0000.0001) %MON seaice_hsnow_sd              =   3.1449667168711E-02
(PID.TID 0000.0001) %MON seaice_hsnow_del2            =   5.2621318178370E-05
(PID.TID 0000.0001) // =======================================================
(PID.TID 0000.0001) // End MONITOR SEAICE statistics
(PID.TID 0000.0001) // =======================================================
(PID.TID 0000.0001) // =======================================================
(PID.TID 0000.0001) // Begin MONITOR EXF statistics
(PID.TID 0000.0001) // =======================================================
(PID.TID 0000.0001) %MON exf_tsnumber                 =                    24
(PID.TID 0000.0001) %MON exf_time_sec                 =   8.6400000000000E+04
(PID.TID 0000.0001) %MON exf_ustress_max              =   1.7779714929837E+00
(PID.TID 0000.0001) %MON exf_ustress_min              =  -2.1423193836018E+00
(PID.TID 0000.0001) %MON exf_ustress_mean             =   1.3989827659735E-02
(PID.TID 0000.0001) %MON exf_ustress_sd               =   1.0290292433566E-01
(PID.TID 0000.0001) %MON exf_ustress_del2             =   9.8853203275557E-05
(PID.TID 0000.0001) %MON exf_vstress_max              =   1.1497915387153E+00
(PID.TID 0000.0001) %MON exf_vstress_min              =  -6.6325843334198E-01
(PID.TID 0000.0001) %MON exf_vstress_mean             =   1.1755918116504E-03
(PID.TID 0000.0001) %MON exf_vstress_sd               =   1.1624401354210E-01
(PID.TID 0000.0001) %MON exf_vstress_del2             =   8.6297313585387E-05
(PID.TID 0000.0001) %MON exf_hflux_max                =   1.2962197620334E+03
(PID.TID 0000.0001) %MON exf_hflux_min                =  -6.2720036047192E+02
(PID.TID 0000.0001) %MON exf_hflux_mean               =   2.1529367422712E+01
(PID.TID 0000.0001) %MON exf_hflux_sd                 =   2.2932569141512E+02
(PID.TID 0000.0001) %MON exf_hflux_del2               =   4.1504980501410E-01
(PID.TID 0000.0001) %MON exf_sflux_max                =   2.4273641207281E-07
(PID.TID 0000.0001) %MON exf_sflux_min                =  -3.3181751496735E-06
(PID.TID 0000.0001) %MON exf_sflux_mean               =   6.1977343442586E-09
(PID.TID 0000.0001) %MON exf_sflux_sd                 =   8.8188498645278E-08
(PID.TID 0000.0001) %MON exf_sflux_del2               =   2.0766294262949E-10
(PID.TID 0000.0001) %MON exf_wspeed_max               =   2.2218237876892E+01
(PID.TID 0000.0001) %MON exf_wspeed_min               =   3.8750673830509E-01
(PID.TID 0000.0001) %MON exf_wspeed_mean              =   6.9382720028360E+00
(PID.TID 0000.0001) %MON exf_wspeed_sd                =   3.0810744945460E+00
(PID.TID 0000.0001) %MON exf_wspeed_del2              =   1.1840174116647E-02
(PID.TID 0000.0001) %MON exf_atemp_max                =   3.0436147823334E+02
(PID.TID 0000.0001) %MON exf_atemp_min                =   2.2970365562439E+02
(PID.TID 0000.0001) %MON exf_atemp_mean               =   2.8909002303351E+02
(PID.TID 0000.0001) %MON exf_atemp_sd                 =   1.2355889429144E+01
(PID.TID 0000.0001) %MON exf_atemp_del2               =   2.6633672145271E-02
(PID.TID 0000.0001) %MON exf_aqh_max                  =   2.2469374351203E-02
(PID.TID 0000.0001) %MON exf_aqh_min                  =   8.1823684013216E-05
(PID.TID 0000.0001) %MON exf_aqh_mean                 =   1.0830147863602E-02
(PID.TID 0000.0001) %MON exf_aqh_sd                   =   5.6080605559580E-03
(PID.TID 0000.0001) %MON exf_aqh_del2                 =   1.4535988830197E-05
(PID.TID 0000.0001) %MON exf_lwflux_max               =   2.2265018943106E+02
(PID.TID 0000.0001) %MON exf_lwflux_min               =  -2.1676752822766E+01
(PID.TID 0000.0001) %MON exf_lwflux_mean              =   4.9235748892160E+01
(PID.TID 0000.0001) %MON exf_lwflux_sd                =   2.9278715562087E+01
(PID.TID 0000.0001) %MON exf_lwflux_del2              =   1.0295204575212E-01
(PID.TID 0000.0001) %MON exf_evap_max                 =   2.4805811006402E-07
(PID.TID 0000.0001) %MON exf_evap_min                 =  -3.2429383713338E-08
(PID.TID 0000.0001) %MON exf_evap_mean                =   4.6223068722161E-08
(PID.TID 0000.0001) %MON exf_evap_sd                  =   2.9269005798412E-08
(PID.TID 0000.0001) %MON exf_evap_del2                =   7.3261921680067E-11
(PID.TID 0000.0001) %MON exf_precip_max               =   3.3534572594363E-06
(PID.TID 0000.0001) %MON exf_precip_min               =  -1.4994255170819E-08
(PID.TID 0000.0001) %MON exf_precip_mean              =   3.6989231119545E-08
(PID.TID 0000.0001) %MON exf_precip_sd                =   7.7822448365220E-08
(PID.TID 0000.0001) %MON exf_precip_del2              =   2.0185320363132E-10
(PID.TID 0000.0001) %MON exf_swflux_max               =   2.5110415796271E+01
(PID.TID 0000.0001) %MON exf_swflux_min               =  -7.0327092343080E+02
(PID.TID 0000.0001) %MON exf_swflux_mean              =  -1.7370116588918E+02
(PID.TID 0000.0001) %MON exf_swflux_sd                =   1.7897392487909E+02
(PID.TID 0000.0001) %MON exf_swflux_del2              =   3.4286597232097E-01
(PID.TID 0000.0001) %MON exf_swdown_max               =   7.5882751464844E+02
(PID.TID 0000.0001) %MON exf_swdown_min               =  -3.3651950836182E+01
(PID.TID 0000.0001) %MON exf_swdown_mean              =   1.8826545287243E+02
(PID.TID 0000.0001) %MON exf_swdown_sd                =   1.9347474461035E+02
(PID.TID 0000.0001) %MON exf_swdown_del2              =   3.7216142922968E-01
(PID.TID 0000.0001) %MON exf_lwdown_max               =   4.6493707275391E+02
(PID.TID 0000.0001) %MON exf_lwdown_min               =   7.7137916564941E+01
(PID.TID 0000.0001) %MON exf_lwdown_mean              =   3.6245805840888E+02
(PID.TID 0000.0001) %MON exf_lwdown_sd                =   6.6234423038669E+01
(PID.TID 0000.0001) %MON exf_lwdown_del2              =   4.8443052939866E-01
(PID.TID 0000.0001) %MON exf_runoff_max               =   2.0591596621084E-06
(PID.TID 0000.0001) %MON exf_runoff_min               =   0.0000000000000E+00
(PID.TID 0000.0001) %MON exf_runoff_mean              =   3.0361032583575E-09
(PID.TID 0000.0001) %MON exf_runoff_sd                =   2.4169927888084E-08
(PID.TID 0000.0001) %MON exf_runoff_del2              =   1.8198137470373E-11
(PID.TID 0000.0001) // =======================================================
(PID.TID 0000.0001) // End MONITOR EXF statistics
(PID.TID 0000.0001) // =======================================================
 SEAICE_LSR: Residual Initial ipass,Uice,Vice=    1  1.23001895E-01  1.55010048E-01
 SEAICE_LSR: Residual FrDrift U_fd,V_fd=  6.57686409E+01  7.33460722E+01
 SEAICE_LSR (ipass=   1) iters,dU,Resid=   402  1.97329240E-04  2.16601545E-03
 SEAICE_LSR (ipass=   1) iters,dV,Resid=   402  5.22908904E-05  7.92935481E-04
 SEAICE_LSR: Residual Initial ipass,Uice,Vice=    2  1.81380743E-01  1.75286912E-01
 SEAICE_LSR: Residual FrDrift U_fd,V_fd=  6.21754554E+01  6.90383817E+01
 SEAICE_LSR (ipass=   2) iters,dU,Resid=    76  1.04899572E-04  6.51659281E-04
 SEAICE_LSR (ipass=   2) iters,dV,Resid=    76  1.96474771E-04  1.38001729E-03
 cg2d: Sum(rhs),rhsMax =   4.07515052882705E+00  3.31930985677725E-01
 cg2d: Sum(rhs),rhsMax =   4.11582316666470E+00  3.31753299386233E-01
(PID.TID 0000.0001)      cg2d_init_res =   2.79563583560824E-01
(PID.TID 0000.0001)      cg2d_iters(min,last) =      -1      85
(PID.TID 0000.0001)      cg2d_last_res =   6.63762393008465E-06
(PID.TID 0000.0001) // =======================================================
(PID.TID 0000.0001) // Begin MONITOR dynamic field statistics
(PID.TID 0000.0001) // =======================================================
(PID.TID 0000.0001) %MON time_tsnumber                =                    26
(PID.TID 0000.0001) %MON time_secondsf                =   9.3600000000000E+04
(PID.TID 0000.0001) %MON dynstat_eta_max              =   1.1677331749202E+00
(PID.TID 0000.0001) %MON dynstat_eta_min              =  -4.2398178157211E+00
(PID.TID 0000.0001) %MON dynstat_eta_mean             =  -2.0831461092579E-03
(PID.TID 0000.0001) %MON dynstat_eta_sd               =   7.4334691812845E-01
(PID.TID 0000.0001) %MON dynstat_eta_del2             =   2.8928687526307E-04
(PID.TID 0000.0001) %MON dynstat_uvel_max             =   1.2269531190449E+00
(PID.TID 0000.0001) %MON dynstat_uvel_min             =  -7.1507534521203E-01
(PID.TID 0000.0001) %MON dynstat_uvel_mean            =   1.3765446929760E-03
(PID.TID 0000.0001) %MON dynstat_uvel_sd              =   2.1628601429095E-02
(PID.TID 0000.0001) %MON dynstat_uvel_del2            =   1.4119365534638E-05
(PID.TID 0000.0001) %MON dynstat_vvel_max             =   1.1190032383529E+00
(PID.TID 0000.0001) %MON dynstat_vvel_min             =  -9.1639934876855E-01
(PID.TID 0000.0001) %MON dynstat_vvel_mean            =   1.2388954597323E-03
(PID.TID 0000.0001) %MON dynstat_vvel_sd              =   2.3898572506809E-02
(PID.TID 0000.0001) %MON dynstat_vvel_del2            =   1.4841826625950E-05
(PID.TID 0000.0001) %MON dynstat_wvel_max             =   7.5398407406868E-04
(PID.TID 0000.0001) %MON dynstat_wvel_min             =  -1.0897436321858E-03
(PID.TID 0000.0001) %MON dynstat_wvel_mean            =  -3.0073097812534E-10
(PID.TID 0000.0001) %MON dynstat_wvel_sd              =   2.8406980555058E-05
(PID.TID 0000.0001) %MON dynstat_wvel_del2            =   3.0390794840127E-08
(PID.TID 0000.0001) %MON dynstat_theta_max            =   3.2616814700139E+01
(PID.TID 0000.0001) %MON dynstat_theta_min            =  -2.0423596936864E+00
(PID.TID 0000.0001) %MON dynstat_theta_mean           =   3.5906406379848E+00
(PID.TID 0000.0001) %MON dynstat_theta_sd             =   4.4365373320357E+00
(PID.TID 0000.0001) %MON dynstat_theta_del2           =   1.0626076333206E-04
(PID.TID 0000.0001) %MON dynstat_salt_max             =   4.0711481678450E+01
(PID.TID 0000.0001) %MON dynstat_salt_min             =   1.7482277689687E+01
(PID.TID 0000.0001) %MON dynstat_salt_mean            =   3.4725693820112E+01
(PID.TID 0000.0001) %MON dynstat_salt_sd              =   3.7886607048478E-01
(PID.TID 0000.0001) %MON dynstat_salt_del2            =   2.6011499352577E-05
(PID.TID 0000.0001) %MON dynstat_sst_max              =   3.2616791033520E+01
(PID.TID 0000.0001) %MON dynstat_sst_min              =  -1.9610559656377E+00
(PID.TID 0000.0001) %MON dynstat_sst_mean             =   1.8515367141744E+01
(PID.TID 0000.0001) %MON dynstat_sst_sd               =   1.0075821952853E+01
(PID.TID 0000.0001) %MON dynstat_sst_del2             =   8.8500291667702E-04
(PID.TID 0000.0001) %MON dynstat_sss_max              =   3.9713948635658E+01
(PID.TID 0000.0001) %MON dynstat_sss_min              =   1.7482277689687E+01
(PID.TID 0000.0001) %MON dynstat_sss_mean             =   3.4721491561179E+01
(PID.TID 0000.0001) %MON dynstat_sss_sd               =   1.2188657059158E+00
(PID.TID 0000.0001) %MON dynstat_sss_del2             =   3.9289325918085E-04
(PID.TID 0000.0001) %MON forcing_qnet_max             =   7.2980613119457E+02
(PID.TID 0000.0001) %MON forcing_qnet_min             =  -5.8480704009899E+02
(PID.TID 0000.0001) %MON forcing_qnet_mean            =   4.5972730739227E+00
(PID.TID 0000.0001) %MON forcing_qnet_sd              =   2.1209621784069E+02
(PID.TID 0000.0001) %MON forcing_qnet_del2            =   1.4338223800133E-01
(PID.TID 0000.0001) %MON forcing_qsw_max              =   2.5091115986888E+01
(PID.TID 0000.0001) %MON forcing_qsw_min              =  -7.3425660572014E+02
(PID.TID 0000.0001) %MON forcing_qsw_mean             =  -1.7484948028373E+02
(PID.TID 0000.0001) %MON forcing_qsw_sd               =   1.8638406728216E+02
(PID.TID 0000.0001) %MON forcing_qsw_del2             =   7.4912352958248E-02
(PID.TID 0000.0001) %MON forcing_empmr_max            =   1.9438742409733E-03
(PID.TID 0000.0001) %MON forcing_empmr_min            =  -2.8803173562919E-03
(PID.TID 0000.0001) %MON forcing_empmr_mean           =   5.8840755208945E-06
(PID.TID 0000.0001) %MON forcing_empmr_sd             =   1.0365145550130E-04
(PID.TID 0000.0001) %MON forcing_empmr_del2           =   4.3273892414470E-07
(PID.TID 0000.0001) %MON forcing_fu_max               =   1.2043091438758E+00
(PID.TID 0000.0001) %MON forcing_fu_min               =  -1.6900421932768E+00
(PID.TID 0000.0001) %MON forcing_fu_mean              =   1.3404236993179E-02
(PID.TID 0000.0001) %MON forcing_fu_sd                =   1.0965004103244E-01
(PID.TID 0000.0001) %MON forcing_fu_del2              =   1.0786126856996E-04
(PID.TID 0000.0001) %MON forcing_fv_max               =   1.3921761903661E+00
(PID.TID 0000.0001) %MON forcing_fv_min               =  -8.7257059412992E-01
(PID.TID 0000.0001) %MON forcing_fv_mean              =   2.2688590189347E-03
(PID.TID 0000.0001) %MON forcing_fv_sd                =   1.2291663020802E-01
(PID.TID 0000.0001) %MON forcing_fv_del2              =   1.0521181992692E-04
(PID.TID 0000.0001) %MON trAdv_CFL_u_max              =   1.1015974334222E-01
(PID.TID 0000.0001) %MON trAdv_CFL_v_max              =   5.3472126010746E-02
(PID.TID 0000.0001) %MON trAdv_CFL_w_max              =   2.0685300622123E-01
(PID.TID 0000.0001) %MON advcfl_uvel_max              =   1.1348561619346E-01
(PID.TID 0000.0001) %MON advcfl_vvel_max              =   5.0426110062969E-02
(PID.TID 0000.0001) %MON advcfl_wvel_max              =   2.0747619236601E-01
(PID.TID 0000.0001) %MON advcfl_W_hf_max              =   2.1757177371039E-01
(PID.TID 0000.0001) %MON pe_b_mean                    =   4.3354624570690E-04
(PID.TID 0000.0001) %MON ke_max                       =   6.8567371706870E-01
(PID.TID 0000.0001) %MON ke_mean                      =   5.0262767860053E-04
(PID.TID 0000.0001) %MON ke_vol                       =   1.3349971385141E+18
(PID.TID 0000.0001) %MON vort_r_min                   =  -3.9422025411076E-05
(PID.TID 0000.0001) %MON vort_r_max                   =   2.6687692392052E-05
(PID.TID 0000.0001) %MON vort_a_mean                  =  -1.9727864647440E-05
(PID.TID 0000.0001) %MON vort_a_sd                    =   7.4543305283872E-05
(PID.TID 0000.0001) %MON vort_p_mean                  =  -2.1760538318635E-05
(PID.TID 0000.0001) %MON vort_p_sd                    =   9.7241902481133E-05
(PID.TID 0000.0001) %MON surfExpan_theta_mean         =   1.1291054164539E-07
(PID.TID 0000.0001) %MON surfExpan_salt_mean          =   3.1250403458888E-08
(PID.TID 0000.0001) // =======================================================
(PID.TID 0000.0001) // End MONITOR dynamic field statistics
(PID.TID 0000.0001) // =======================================================
(PID.TID 0000.0001) // =======================================================
(PID.TID 0000.0001) // Begin MONITOR SEAICE statistics
(PID.TID 0000.0001) // =======================================================
(PID.TID 0000.0001) %MON seaice_tsnumber              =                    26
(PID.TID 0000.0001) %MON seaice_time_sec              =   9.3600000000000E+04
(PID.TID 0000.0001) %MON seaice_uice_max              =   4.0000000000000E-01
(PID.TID 0000.0001) %MON seaice_uice_min              =  -4.0000000000000E-01
(PID.TID 0000.0001) %MON seaice_uice_mean             =   5.5186163971758E-03
(PID.TID 0000.0001) %MON seaice_uice_sd               =   1.8266068529675E-01
(PID.TID 0000.0001) %MON seaice_uice_del2             =   1.8926920501183E-04
(PID.TID 0000.0001) %MON seaice_vice_max              =   4.0000000000000E-01
(PID.TID 0000.0001) %MON seaice_vice_min              =  -4.0000000000000E-01
(PID.TID 0000.0001) %MON seaice_vice_mean             =  -1.4862485256441E-02
(PID.TID 0000.0001) %MON seaice_vice_sd               =   2.0442736584308E-01
(PID.TID 0000.0001) %MON seaice_vice_del2             =   2.0759885550229E-04
(PID.TID 0000.0001) %MON seaice_area_max              =   9.5000000000000E-01
(PID.TID 0000.0001) %MON seaice_area_min              =   0.0000000000000E+00
(PID.TID 0000.0001) %MON seaice_area_mean             =   3.8980487377230E-02
(PID.TID 0000.0001) %MON seaice_area_sd               =   1.7871720456319E-01
(PID.TID 0000.0001) %MON seaice_area_del2             =   2.6749812712764E-04
(PID.TID 0000.0001) %MON seaice_heff_max              =   4.3291508744718E+00
(PID.TID 0000.0001) %MON seaice_heff_min              =   0.0000000000000E+00
(PID.TID 0000.0001) %MON seaice_heff_mean             =   5.3531362032538E-02
(PID.TID 0000.0001) %MON seaice_heff_sd               =   3.0599477522865E-01
(PID.TID 0000.0001) %MON seaice_heff_del2             =   3.0208659056195E-04
(PID.TID 0000.0001) %MON seaice_hsnow_max             =   9.7403622192115E-01
(PID.TID 0000.0001) %MON seaice_hsnow_min             =  -3.5582038216224E-05
(PID.TID 0000.0001) %MON seaice_hsnow_mean            =   5.2385535725884E-03
(PID.TID 0000.0001) %MON seaice_hsnow_sd              =   3.1448344375394E-02
(PID.TID 0000.0001) %MON seaice_hsnow_del2            =   5.2821631956953E-05
(PID.TID 0000.0001) // =======================================================
(PID.TID 0000.0001) // End MONITOR SEAICE statistics
(PID.TID 0000.0001) // =======================================================
(PID.TID 0000.0001) // =======================================================
(PID.TID 0000.0001) // Begin MONITOR EXF statistics
(PID.TID 0000.0001) // =======================================================
(PID.TID 0000.0001) %MON exf_tsnumber                 =                    26
(PID.TID 0000.0001) %MON exf_time_sec                 =   9.3600000000000E+04
(PID.TID 0000.0001) %MON exf_ustress_max              =   1.5993634833658E+00
(PID.TID 0000.0001) %MON exf_ustress_min              =  -2.2637475555501E+00
(PID.TID 0000.0001) %MON exf_ustress_mean             =   1.4277065445840E-02
(PID.TID 0000.0001) %MON exf_ustress_sd               =   1.0495339922304E-01
(PID.TID 0000.0001) %MON exf_ustress_del2             =   1.0207625087221E-04
(PID.TID 0000.0001) %MON exf_vstress_max              =   1.1473790208498E+00
(PID.TID 0000.0001) %MON exf_vstress_min              =  -7.2748720645904E-01
(PID.TID 0000.0001) %MON exf_vstress_mean             =   1.4099777967139E-03
(PID.TID 0000.0001) %MON exf_vstress_sd               =   1.1759154609514E-01
(PID.TID 0000.0001) %MON exf_vstress_del2             =   9.2390316173985E-05
(PID.TID 0000.0001) %MON exf_hflux_max                =   1.3319924674068E+03
(PID.TID 0000.0001) %MON exf_hflux_min                =  -6.8523030108367E+02
(PID.TID 0000.0001) %MON exf_hflux_mean               =   1.7139351161668E+01
(PID.TID 0000.0001) %MON exf_hflux_sd                 =   2.5289204836772E+02
(PID.TID 0000.0001) %MON exf_hflux_del2               =   4.3930905687509E-01
(PID.TID 0000.0001) %MON exf_sflux_max                =   2.5834816347643E-07
(PID.TID 0000.0001) %MON exf_sflux_min                =  -2.8840543823599E-06
(PID.TID 0000.0001) %MON exf_sflux_mean               =   6.5145983140833E-09
(PID.TID 0000.0001) %MON exf_sflux_sd                 =   8.9582508827553E-08
(PID.TID 0000.0001) %MON exf_sflux_del2               =   2.1879704296249E-10
(PID.TID 0000.0001) %MON exf_wspeed_max               =   2.2219365119934E+01
(PID.TID 0000.0001) %MON exf_wspeed_min               =   3.8960596919060E-01
(PID.TID 0000.0001) %MON exf_wspeed_mean              =   6.9495579567173E+00
(PID.TID 0000.0001) %MON exf_wspeed_sd                =   3.1316301803236E+00
(PID.TID 0000.0001) %MON exf_wspeed_del2              =   1.1966098407149E-02
(PID.TID 0000.0001) %MON exf_atemp_max                =   3.0526796029409E+02
(PID.TID 0000.0001) %MON exf_atemp_min                =   2.2936596209208E+02
(PID.TID 0000.0001) %MON exf_atemp_mean               =   2.8906151575499E+02
(PID.TID 0000.0001) %MON exf_atemp_sd                 =   1.2335920655276E+01
(PID.TID 0000.0001) %MON exf_atemp_del2               =   2.6613071089470E-02
(PID.TID 0000.0001) %MON exf_aqh_max                  =   2.2938170470297E-02
(PID.TID 0000.0001) %MON exf_aqh_min                  =   8.0914545833366E-05
(PID.TID 0000.0001) %MON exf_aqh_mean                 =   1.0830539982248E-02
(PID.TID 0000.0001) %MON exf_aqh_sd                   =   5.6073957955280E-03
(PID.TID 0000.0001) %MON exf_aqh_del2                 =   1.4552349438417E-05
(PID.TID 0000.0001) %MON exf_lwflux_max               =   2.2039171892478E+02
(PID.TID 0000.0001) %MON exf_lwflux_min               =  -2.2760808041094E+01
(PID.TID 0000.0001) %MON exf_lwflux_mean              =   4.9360799214648E+01
(PID.TID 0000.0001) %MON exf_lwflux_sd                =   2.9656620625085E+01
(PID.TID 0000.0001) %MON exf_lwflux_del2              =   1.0360507353052E-01
(PID.TID 0000.0001) %MON exf_evap_max                 =   2.6367272539889E-07
(PID.TID 0000.0001) %MON exf_evap_min                 =  -3.5286557632249E-08
(PID.TID 0000.0001) %MON exf_evap_mean                =   4.6382971252201E-08
(PID.TID 0000.0001) %MON exf_evap_sd                  =   2.9707828933657E-08
(PID.TID 0000.0001) %MON exf_evap_del2                =   7.4211142977752E-11
(PID.TID 0000.0001) %MON exf_precip_max               =   2.9101589120728E-06
(PID.TID 0000.0001) %MON exf_precip_min               =  -1.5227614872752E-08
(PID.TID 0000.0001) %MON exf_precip_mean              =   3.6833174105386E-08
(PID.TID 0000.0001) %MON exf_precip_sd                =   7.9516309496252E-08
(PID.TID 0000.0001) %MON exf_precip_del2              =   2.1271544045537E-10
(PID.TID 0000.0001) %MON exf_swflux_max               =   2.5182343004862E+01
(PID.TID 0000.0001) %MON exf_swflux_min               =  -8.3238708483508E+02
(PID.TID 0000.0001) %MON exf_swflux_mean              =  -1.7899305685103E+02
(PID.TID 0000.0001) %MON exf_swflux_sd                =   2.0841213092503E+02
(PID.TID 0000.0001) %MON exf_swflux_del2              =   3.7500136807436E-01
(PID.TID 0000.0001) %MON exf_swdown_max               =   8.9790555318197E+02
(PID.TID 0000.0001) %MON exf_swdown_min               =  -3.3600251515706E+01
(PID.TID 0000.0001) %MON exf_swdown_mean              =   1.9414386821126E+02
(PID.TID 0000.0001) %MON exf_swdown_sd                =   2.2545770791003E+02
(PID.TID 0000.0001) %MON exf_swdown_del2              =   4.0740784894811E-01
(PID.TID 0000.0001) %MON exf_lwdown_max               =   4.6312339274089E+02
(PID.TID 0000.0001) %MON exf_lwdown_min               =   7.9466239929199E+01
(PID.TID 0000.0001) %MON exf_lwdown_mean              =   3.6232418871857E+02
(PID.TID 0000.0001) %MON exf_lwdown_sd                =   6.6396735640113E+01
(PID.TID 0000.0001) %MON exf_lwdown_del2              =   4.8457961467124E-01
(PID.TID 0000.0001) %MON exf_runoff_max               =   2.0623138209063E-06
(PID.TID 0000.0001) %MON exf_runoff_min               =   0.0000000000000E+00
(PID.TID 0000.0001) %MON exf_runoff_mean              =   3.0351988327312E-09
(PID.TID 0000.0001) %MON exf_runoff_sd                =   2.4199322478869E-08
(PID.TID 0000.0001) %MON exf_runoff_del2              =   1.8208719368404E-11
(PID.TID 0000.0001) // =======================================================
(PID.TID 0000.0001) // End MONITOR EXF statistics
(PID.TID 0000.0001) // =======================================================
 SEAICE_LSR: Residual Initial ipass,Uice,Vice=    1  1.29141508E-01  1.59670231E-01
 SEAICE_LSR: Residual FrDrift U_fd,V_fd=  6.27648918E+01  7.39198032E+01
 SEAICE_LSR (ipass=   1) iters,dU,Resid=   406  1.97703453E-04  2.16193656E-03
 SEAICE_LSR (ipass=   1) iters,dV,Resid=   406  3.74692401E-05  6.21374131E-04
 SEAICE_LSR: Residual Initial ipass,Uice,Vice=    2  1.74877741E-01  1.65134066E-01
 SEAICE_LSR: Residual FrDrift U_fd,V_fd=  5.86575160E+01  6.99244078E+01
 SEAICE_LSR (ipass=   2) iters,dU,Resid=    62  1.47210189E-04  7.47244502E-04
 SEAICE_LSR (ipass=   2) iters,dV,Resid=    62  1.99558431E-04  1.40273609E-03
 cg2d: Sum(rhs),rhsMax =   4.15651981763294E+00  3.30824974819837E-01
 cg2d: Sum(rhs),rhsMax =   4.19730340191050E+00  3.29304783777157E-01
(PID.TID 0000.0001)      cg2d_init_res =   2.80821990565216E-01
(PID.TID 0000.0001)      cg2d_iters(min,last) =      -1      84
(PID.TID 0000.0001)      cg2d_last_res =   6.75019907887592E-06
(PID.TID 0000.0001) // =======================================================
(PID.TID 0000.0001) // Begin MONITOR dynamic field statistics
(PID.TID 0000.0001) // =======================================================
(PID.TID 0000.0001) %MON time_tsnumber                =                    28
(PID.TID 0000.0001) %MON time_secondsf                =   1.0080000000000E+05
(PID.TID 0000.0001) %MON dynstat_eta_max              =   1.1647106522911E+00
(PID.TID 0000.0001) %MON dynstat_eta_min              =  -4.3412058981460E+00
(PID.TID 0000.0001) %MON dynstat_eta_mean             =  -2.1243857904007E-03
(PID.TID 0000.0001) %MON dynstat_eta_sd               =   7.4320942043591E-01
(PID.TID 0000.0001) %MON dynstat_eta_del2             =   2.9189575814130E-04
(PID.TID 0000.0001) %MON dynstat_uvel_max             =   1.1341473170708E+00
(PID.TID 0000.0001) %MON dynstat_uvel_min             =  -7.1261382392176E-01
(PID.TID 0000.0001) %MON dynstat_uvel_mean            =   1.3704167588497E-03
(PID.TID 0000.0001) %MON dynstat_uvel_sd              =   2.1612315808020E-02
(PID.TID 0000.0001) %MON dynstat_uvel_del2            =   1.4038881509051E-05
(PID.TID 0000.0001) %MON dynstat_vvel_max             =   1.1295608548092E+00
(PID.TID 0000.0001) %MON dynstat_vvel_min             =  -9.1182332165085E-01
(PID.TID 0000.0001) %MON dynstat_vvel_mean            =   1.2403799598136E-03
(PID.TID 0000.0001) %MON dynstat_vvel_sd              =   2.3883175830402E-02
(PID.TID 0000.0001) %MON dynstat_vvel_del2            =   1.4692871698724E-05
(PID.TID 0000.0001) %MON dynstat_wvel_max             =   7.6772689801550E-04
(PID.TID 0000.0001) %MON dynstat_wvel_min             =  -1.1081339432586E-03
(PID.TID 0000.0001) %MON dynstat_wvel_mean            =   6.0921926896582E-10
(PID.TID 0000.0001) %MON dynstat_wvel_sd              =   2.8114993767352E-05
(PID.TID 0000.0001) %MON dynstat_wvel_del2            =   2.9753544423745E-08
(PID.TID 0000.0001) %MON dynstat_theta_max            =   3.2598920341273E+01
(PID.TID 0000.0001) %MON dynstat_theta_min            =  -2.0423425813806E+00
(PID.TID 0000.0001) %MON dynstat_theta_mean           =   3.5906397816491E+00
(PID.TID 0000.0001) %MON dynstat_theta_sd             =   4.4364903968742E+00
(PID.TID 0000.0001) %MON dynstat_theta_del2           =   1.0609435691937E-04
(PID.TID 0000.0001) %MON dynstat_salt_max             =   4.0711477057458E+01
(PID.TID 0000.0001) %MON dynstat_salt_min             =   1.7487659211039E+01
(PID.TID 0000.0001) %MON dynstat_salt_mean            =   3.4725694199197E+01
(PID.TID 0000.0001) %MON dynstat_salt_sd              =   3.7886500826755E-01
(PID.TID 0000.0001) %MON dynstat_salt_del2            =   2.5939675410210E-05
(PID.TID 0000.0001) %MON dynstat_sst_max              =   3.2598890702388E+01
(PID.TID 0000.0001) %MON dynstat_sst_min              =  -1.9610498412714E+00
(PID.TID 0000.0001) %MON dynstat_sst_mean             =   1.8515417637647E+01
(PID.TID 0000.0001) %MON dynstat_sst_sd               =   1.0073074599863E+01
(PID.TID 0000.0001) %MON dynstat_sst_del2             =   8.8426998840395E-04
(PID.TID 0000.0001) %MON dynstat_sss_max              =   3.9713477704807E+01
(PID.TID 0000.0001) %MON dynstat_sss_min              =   1.7487659211039E+01
(PID.TID 0000.0001) %MON dynstat_sss_mean             =   3.4721625672459E+01
(PID.TID 0000.0001) %MON dynstat_sss_sd               =   1.2187362071085E+00
(PID.TID 0000.0001) %MON dynstat_sss_del2             =   3.9229649144165E-04
(PID.TID 0000.0001) %MON forcing_qnet_max             =   8.7420209102901E+02
(PID.TID 0000.0001) %MON forcing_qnet_min             =  -8.0491460437755E+02
(PID.TID 0000.0001) %MON forcing_qnet_mean            =   4.0858155112758E-01
(PID.TID 0000.0001) %MON forcing_qnet_sd              =   2.5817400907718E+02
(PID.TID 0000.0001) %MON forcing_qnet_del2            =   1.5918852324054E-01
(PID.TID 0000.0001) %MON forcing_qsw_max              =   2.8188411629466E+01
(PID.TID 0000.0001) %MON forcing_qsw_min              =  -9.3957589450704E+02
(PID.TID 0000.0001) %MON forcing_qsw_mean             =  -1.7996743555324E+02
(PID.TID 0000.0001) %MON forcing_qsw_sd               =   2.3823062188345E+02
(PID.TID 0000.0001) %MON forcing_qsw_del2             =   8.6133726442341E-02
(PID.TID 0000.0001) %MON forcing_empmr_max            =   1.9506822213059E-03
(PID.TID 0000.0001) %MON forcing_empmr_min            =  -3.2690849621558E-03
(PID.TID 0000.0001) %MON forcing_empmr_mean           =   5.9001260469234E-06
(PID.TID 0000.0001) %MON forcing_empmr_sd             =   1.0873316482861E-04
(PID.TID 0000.0001) %MON forcing_empmr_del2           =   4.7058762778343E-07
(PID.TID 0000.0001) %MON forcing_fu_max               =   1.0708427469684E+00
(PID.TID 0000.0001) %MON forcing_fu_min               =  -1.8654328729592E+00
(PID.TID 0000.0001) %MON forcing_fu_mean              =   1.3737147143610E-02
(PID.TID 0000.0001) %MON forcing_fu_sd                =   1.1297411664605E-01
(PID.TID 0000.0001) %MON forcing_fu_del2              =   1.1327936756799E-04
(PID.TID 0000.0001) %MON forcing_fv_max               =   1.3143956948629E+00
(PID.TID 0000.0001) %MON forcing_fv_min               =  -8.6777225227028E-01
(PID.TID 0000.0001) %MON forcing_fv_mean              =   2.4398901947660E-03
(PID.TID 0000.0001) %MON forcing_fv_sd                =   1.2527476176567E-01
(PID.TID 0000.0001) %MON forcing_fv_del2              =   1.1095100001195E-04
(PID.TID 0000.0001) %MON trAdv_CFL_u_max              =   1.0143331989624E-01
(PID.TID 0000.0001) %MON trAdv_CFL_v_max              =   5.1714940868964E-02
(PID.TID 0000.0001) %MON trAdv_CFL_w_max              =   2.0723360504131E-01
(PID.TID 0000.0001) %MON advcfl_uvel_max              =   1.0490165038428E-01
(PID.TID 0000.0001) %MON advcfl_vvel_max              =   5.1902024292929E-02
(PID.TID 0000.0001) %MON advcfl_wvel_max              =   2.0802138686633E-01
(PID.TID 0000.0001) %MON advcfl_W_hf_max              =   2.1795227903981E-01
(PID.TID 0000.0001) %MON pe_b_mean                    =   4.3305809319420E-04
(PID.TID 0000.0001) %MON ke_max                       =   6.4446209064220E-01
(PID.TID 0000.0001) %MON ke_mean                      =   5.0192704678206E-04
(PID.TID 0000.0001) %MON ke_vol                       =   1.3349971237698E+18
(PID.TID 0000.0001) %MON vort_r_min                   =  -3.7083539151005E-05
(PID.TID 0000.0001) %MON vort_r_max                   =   2.5747699619249E-05
(PID.TID 0000.0001) %MON vort_a_mean                  =  -1.9727864647440E-05
(PID.TID 0000.0001) %MON vort_a_sd                    =   7.4543301256505E-05
(PID.TID 0000.0001) %MON vort_p_mean                  =  -2.1760538504199E-05
(PID.TID 0000.0001) %MON vort_p_sd                    =   9.7242025638616E-05
(PID.TID 0000.0001) %MON surfExpan_theta_mean         =   1.5172085142891E-07
(PID.TID 0000.0001) %MON surfExpan_salt_mean          =   3.0860462849833E-08
(PID.TID 0000.0001) // =======================================================
(PID.TID 0000.0001) // End MONITOR dynamic field statistics
(PID.TID 0000.0001) // =======================================================
(PID.TID 0000.0001) // =======================================================
(PID.TID 0000.0001) // Begin MONITOR SEAICE statistics
(PID.TID 0000.0001) // =======================================================
(PID.TID 0000.0001) %MON seaice_tsnumber              =                    28
(PID.TID 0000.0001) %MON seaice_time_sec              =   1.0080000000000E+05
(PID.TID 0000.0001) %MON seaice_uice_max              =   4.0000000000000E-01
(PID.TID 0000.0001) %MON seaice_uice_min              =  -4.0000000000000E-01
(PID.TID 0000.0001) %MON seaice_uice_mean             =   5.7158265539460E-03
(PID.TID 0000.0001) %MON seaice_uice_sd               =   1.8342946833962E-01
(PID.TID 0000.0001) %MON seaice_uice_del2             =   1.9473658247448E-04
(PID.TID 0000.0001) %MON seaice_vice_max              =   4.0000000000000E-01
(PID.TID 0000.0001) %MON seaice_vice_min              =  -4.0000000000000E-01
(PID.TID 0000.0001) %MON seaice_vice_mean             =  -1.4227213312836E-02
(PID.TID 0000.0001) %MON seaice_vice_sd               =   2.0495240424219E-01
(PID.TID 0000.0001) %MON seaice_vice_del2             =   2.1446795703745E-04
(PID.TID 0000.0001) %MON seaice_area_max              =   9.5000000000000E-01
(PID.TID 0000.0001) %MON seaice_area_min              =   0.0000000000000E+00
(PID.TID 0000.0001) %MON seaice_area_mean             =   3.8941869557013E-02
(PID.TID 0000.0001) %MON seaice_area_sd               =   1.7865603834113E-01
(PID.TID 0000.0001) %MON seaice_area_del2             =   2.6649744304706E-04
(PID.TID 0000.0001) %MON seaice_heff_max              =   4.4369427890277E+00
(PID.TID 0000.0001) %MON seaice_heff_min              =   0.0000000000000E+00
(PID.TID 0000.0001) %MON seaice_heff_mean             =   5.3536875371004E-02
(PID.TID 0000.0001) %MON seaice_heff_sd               =   3.0613613333267E-01
(PID.TID 0000.0001) %MON seaice_heff_del2             =   3.0518120290216E-04
(PID.TID 0000.0001) %MON seaice_hsnow_max             =   9.7324943267068E-01
(PID.TID 0000.0001) %MON seaice_hsnow_min             =  -4.0656266232407E-05
(PID.TID 0000.0001) %MON seaice_hsnow_mean            =   5.2364964160543E-03
(PID.TID 0000.0001) %MON seaice_hsnow_sd              =   3.1446208277104E-02
(PID.TID 0000.0001) %MON seaice_hsnow_del2            =   5.2983276608389E-05
(PID.TID 0000.0001) // =======================================================
(PID.TID 0000.0001) // End MONITOR SEAICE statistics
(PID.TID 0000.0001) // =======================================================
(PID.TID 0000.0001) // =======================================================
(PID.TID 0000.0001) // Begin MONITOR EXF statistics
(PID.TID 0000.0001) // =======================================================
(PID.TID 0000.0001) %MON exf_tsnumber                 =                    28
(PID.TID 0000.0001) %MON exf_time_sec                 =   1.0080000000000E+05
(PID.TID 0000.0001) %MON exf_ustress_max              =   1.5284285300457E+00
(PID.TID 0000.0001) %MON exf_ustress_min              =  -2.3163862557804E+00
(PID.TID 0000.0001) %MON exf_ustress_mean             =   1.4355312479863E-02
(PID.TID 0000.0001) %MON exf_ustress_sd               =   1.0584405975968E-01
(PID.TID 0000.0001) %MON exf_ustress_del2             =   1.0205564378137E-04
(PID.TID 0000.0001) %MON exf_vstress_max              =   1.0887415416831E+00
(PID.TID 0000.0001) %MON exf_vstress_min              =  -7.6605010032654E-01
(PID.TID 0000.0001) %MON exf_vstress_mean             =   1.3393733149365E-03
(PID.TID 0000.0001) %MON exf_vstress_sd               =   1.1672314889297E-01
(PID.TID 0000.0001) %MON exf_vstress_del2             =   9.2683865301665E-05
(PID.TID 0000.0001) %MON exf_hflux_max                =   1.3210618648308E+03
(PID.TID 0000.0001) %MON exf_hflux_min                =  -6.9112851460822E+02
(PID.TID 0000.0001) %MON exf_hflux_mean               =   1.0380364724829E+01
(PID.TID 0000.0001) %MON exf_hflux_sd                 =   2.5251757249263E+02
(PID.TID 0000.0001) %MON exf_hflux_del2               =   4.3892963020167E-01
(PID.TID 0000.0001) %MON exf_sflux_max                =   2.6421702208768E-07
(PID.TID 0000.0001) %MON exf_sflux_min                =  -2.8797089742624E-06
(PID.TID 0000.0001) %MON exf_sflux_mean               =   6.3786655960075E-09
(PID.TID 0000.0001) %MON exf_sflux_sd                 =   8.9347044404131E-08
(PID.TID 0000.0001) %MON exf_sflux_del2               =   2.1973510485699E-10
(PID.TID 0000.0001) %MON exf_wspeed_max               =   2.2367320060730E+01
(PID.TID 0000.0001) %MON exf_wspeed_min               =   3.8721845050653E-01
(PID.TID 0000.0001) %MON exf_wspeed_mean              =   6.9413494472484E+00
(PID.TID 0000.0001) %MON exf_wspeed_sd                =   3.1313985375104E+00
(PID.TID 0000.0001) %MON exf_wspeed_del2              =   1.1947361704821E-02
(PID.TID 0000.0001) %MON exf_atemp_max                =   3.0494259808858E+02
(PID.TID 0000.0001) %MON exf_atemp_min                =   2.2912150929769E+02
(PID.TID 0000.0001) %MON exf_atemp_mean               =   2.8905441703612E+02
(PID.TID 0000.0001) %MON exf_atemp_sd                 =   1.2322694057975E+01
(PID.TID 0000.0001) %MON exf_atemp_del2               =   2.6580068122131E-02
(PID.TID 0000.0001) %MON exf_aqh_max                  =   2.2590189861755E-02
(PID.TID 0000.0001) %MON exf_aqh_min                  =   7.9869623732520E-05
(PID.TID 0000.0001) %MON exf_aqh_mean                 =   1.0826953888680E-02
(PID.TID 0000.0001) %MON exf_aqh_sd                   =   5.5997411671374E-03
(PID.TID 0000.0001) %MON exf_aqh_del2                 =   1.4537095077646E-05
(PID.TID 0000.0001) %MON exf_lwflux_max               =   2.1570650091362E+02
(PID.TID 0000.0001) %MON exf_lwflux_min               =  -2.1935872326665E+01
(PID.TID 0000.0001) %MON exf_lwflux_mean              =   4.9355943273693E+01
(PID.TID 0000.0001) %MON exf_lwflux_sd                =   2.9707112730240E+01
(PID.TID 0000.0001) %MON exf_lwflux_del2              =   1.0349976067388E-01
(PID.TID 0000.0001) %MON exf_evap_max                 =   2.6957548592838E-07
(PID.TID 0000.0001) %MON exf_evap_min                 =  -3.3238738561712E-08
(PID.TID 0000.0001) %MON exf_evap_mean                =   4.6351043427983E-08
(PID.TID 0000.0001) %MON exf_evap_sd                  =   2.9700646026670E-08
(PID.TID 0000.0001) %MON exf_evap_del2                =   7.4083286772840E-11
(PID.TID 0000.0001) %MON exf_precip_max               =   2.9028433061740E-06
(PID.TID 0000.0001) %MON exf_precip_min               =  -1.5133022242727E-08
(PID.TID 0000.0001) %MON exf_precip_mean              =   3.6938083424870E-08
(PID.TID 0000.0001) %MON exf_precip_sd                =   7.9410144010707E-08
(PID.TID 0000.0001) %MON exf_precip_del2              =   2.1410836522024E-10
(PID.TID 0000.0001) %MON exf_swflux_max               =   2.6672827553671E+01
(PID.TID 0000.0001) %MON exf_swflux_min               =  -8.1971778523690E+02
(PID.TID 0000.0001) %MON exf_swflux_mean              =  -1.8568227956020E+02
(PID.TID 0000.0001) %MON exf_swflux_sd                =   2.0576467511007E+02
(PID.TID 0000.0001) %MON exf_swflux_del2              =   3.7906430402678E-01
(PID.TID 0000.0001) %MON exf_swdown_max               =   8.8400162760417E+02
(PID.TID 0000.0001) %MON exf_swdown_min               =  -3.3639589309692E+01
(PID.TID 0000.0001) %MON exf_swdown_mean              =   2.0145240998798E+02
(PID.TID 0000.0001) %MON exf_swdown_sd                =   2.2252203664541E+02
(PID.TID 0000.0001) %MON exf_swdown_del2              =   4.1189188091209E-01
(PID.TID 0000.0001) %MON exf_lwdown_max               =   4.6158194478353E+02
(PID.TID 0000.0001) %MON exf_lwdown_min               =   8.4296226501465E+01
(PID.TID 0000.0001) %MON exf_lwdown_mean              =   3.6232787815858E+02
(PID.TID 0000.0001) %MON exf_lwdown_sd                =   6.6337923130071E+01
(PID.TID 0000.0001) %MON exf_lwdown_del2              =   4.8469403055487E-01
(PID.TID 0000.0001) %MON exf_runoff_max               =   2.0654679797043E-06
(PID.TID 0000.0001) %MON exf_runoff_min               =   0.0000000000000E+00
(PID.TID 0000.0001) %MON exf_runoff_mean              =   3.0342944071050E-09
(PID.TID 0000.0001) %MON exf_runoff_sd                =   2.4228734843146E-08
(PID.TID 0000.0001) %MON exf_runoff_del2              =   1.8219326058362E-11
(PID.TID 0000.0001) // =======================================================
(PID.TID 0000.0001) // End MONITOR EXF statistics
(PID.TID 0000.0001) // =======================================================
 SEAICE_LSR: Residual Initial ipass,Uice,Vice=    1  1.34840351E-01  1.62638543E-01
 SEAICE_LSR: Residual FrDrift U_fd,V_fd=  6.11350995E+01  7.76445908E+01
 SEAICE_LSR (ipass=   1) iters,dU,Resid=   414  1.97599531E-04  2.14945294E-03
 SEAICE_LSR (ipass=   1) iters,dV,Resid=   414  2.47579248E-05  3.82646332E-04
 SEAICE_LSR: Residual Initial ipass,Uice,Vice=    2  1.83945756E-01  2.01982056E-01
 SEAICE_LSR: Residual FrDrift U_fd,V_fd=  5.65117016E+01  7.43148537E+01
 SEAICE_LSR (ipass=   2) iters,dU,Resid=    58  1.88379901E-04  1.22992081E-03
 SEAICE_LSR (ipass=   2) iters,dV,Resid=    58  1.71320627E-04  1.07419536E-03
 cg2d: Sum(rhs),rhsMax =   4.23526960269369E+00  3.26896637327391E-01
 cg2d: Sum(rhs),rhsMax =   4.27137486039656E+00  3.24018178475862E-01
(PID.TID 0000.0001)      cg2d_init_res =   2.80059985425128E-01
(PID.TID 0000.0001)      cg2d_iters(min,last) =      -1      84
(PID.TID 0000.0001)      cg2d_last_res =   6.80664156136132E-06
(PID.TID 0000.0001) // =======================================================
(PID.TID 0000.0001) // Begin MONITOR dynamic field statistics
(PID.TID 0000.0001) // =======================================================
(PID.TID 0000.0001) %MON time_tsnumber                =                    30
(PID.TID 0000.0001) %MON time_secondsf                =   1.0800000000000E+05
(PID.TID 0000.0001) %MON dynstat_eta_max              =   1.1652061794867E+00
(PID.TID 0000.0001) %MON dynstat_eta_min              =  -4.4388286078892E+00
(PID.TID 0000.0001) %MON dynstat_eta_mean             =  -2.1618756592078E-03
(PID.TID 0000.0001) %MON dynstat_eta_sd               =   7.4306961847268E-01
(PID.TID 0000.0001) %MON dynstat_eta_del2             =   2.9406637387120E-04
(PID.TID 0000.0001) %MON dynstat_uvel_max             =   1.0396241448508E+00
(PID.TID 0000.0001) %MON dynstat_uvel_min             =  -7.2191796554607E-01
(PID.TID 0000.0001) %MON dynstat_uvel_mean            =   1.3683470454295E-03
(PID.TID 0000.0001) %MON dynstat_uvel_sd              =   2.1617689878468E-02
(PID.TID 0000.0001) %MON dynstat_uvel_del2            =   1.3963451237846E-05
(PID.TID 0000.0001) %MON dynstat_vvel_max             =   1.1406601029689E+00
(PID.TID 0000.0001) %MON dynstat_vvel_min             =  -9.0584862583711E-01
(PID.TID 0000.0001) %MON dynstat_vvel_mean            =   1.2401524423643E-03
(PID.TID 0000.0001) %MON dynstat_vvel_sd              =   2.3905992103965E-02
(PID.TID 0000.0001) %MON dynstat_vvel_del2            =   1.4562099579377E-05
(PID.TID 0000.0001) %MON dynstat_wvel_max             =   8.1077378026450E-04
(PID.TID 0000.0001) %MON dynstat_wvel_min             =  -1.2193139816491E-03
(PID.TID 0000.0001) %MON dynstat_wvel_mean            =   2.7006643893054E-10
(PID.TID 0000.0001) %MON dynstat_wvel_sd              =   2.7985226189962E-05
(PID.TID 0000.0001) %MON dynstat_wvel_del2            =   2.9313847896848E-08
(PID.TID 0000.0001) %MON dynstat_theta_max            =   3.2583395174001E+01
(PID.TID 0000.0001) %MON dynstat_theta_min            =  -2.0423187649788E+00
(PID.TID 0000.0001) %MON dynstat_theta_mean           =   3.5906426138012E+00
(PID.TID 0000.0001) %MON dynstat_theta_sd             =   4.4364645664199E+00
(PID.TID 0000.0001) %MON dynstat_theta_del2           =   1.0595010591817E-04
(PID.TID 0000.0001) %MON dynstat_salt_max             =   4.0711472242100E+01
(PID.TID 0000.0001) %MON dynstat_salt_min             =   1.7492969147348E+01
(PID.TID 0000.0001) %MON dynstat_salt_mean            =   3.4725694545241E+01
(PID.TID 0000.0001) %MON dynstat_salt_sd              =   3.7886392446411E-01
(PID.TID 0000.0001) %MON dynstat_salt_del2            =   2.5875196324822E-05
(PID.TID 0000.0001) %MON dynstat_sst_max              =   3.2583368879977E+01
(PID.TID 0000.0001) %MON dynstat_sst_min              =  -1.9610499163410E+00
(PID.TID 0000.0001) %MON dynstat_sst_mean             =   1.8515983837101E+01
(PID.TID 0000.0001) %MON dynstat_sst_sd               =   1.0071061744338E+01
(PID.TID 0000.0001) %MON dynstat_sst_del2             =   8.8390200605558E-04
(PID.TID 0000.0001) %MON dynstat_sss_max              =   3.9713005703586E+01
(PID.TID 0000.0001) %MON dynstat_sss_min              =   1.7492969147348E+01
(PID.TID 0000.0001) %MON dynstat_sss_mean             =   3.4721778633932E+01
(PID.TID 0000.0001) %MON dynstat_sss_sd               =   1.2185916162924E+00
(PID.TID 0000.0001) %MON dynstat_sss_del2             =   3.9163856954972E-04
(PID.TID 0000.0001) %MON forcing_qnet_max             =   9.6791313980505E+02
(PID.TID 0000.0001) %MON forcing_qnet_min             =  -6.2128890685965E+02
(PID.TID 0000.0001) %MON forcing_qnet_mean            =  -8.6174260442700E+00
(PID.TID 0000.0001) %MON forcing_qnet_sd              =   2.1221699990857E+02
(PID.TID 0000.0001) %MON forcing_qnet_del2            =   1.5599977044675E-01
(PID.TID 0000.0001) %MON forcing_qsw_max              =   2.5165264320437E+01
(PID.TID 0000.0001) %MON forcing_qsw_min              =  -7.5950016430673E+02
(PID.TID 0000.0001) %MON forcing_qsw_mean             =  -1.8802818490331E+02
(PID.TID 0000.0001) %MON forcing_qsw_sd               =   1.8279953324212E+02
(PID.TID 0000.0001) %MON forcing_qsw_del2             =   7.6808615567171E-02
(PID.TID 0000.0001) %MON forcing_empmr_max            =   1.9142963590764E-03
(PID.TID 0000.0001) %MON forcing_empmr_min            =  -2.4906214472597E-03
(PID.TID 0000.0001) %MON forcing_empmr_mean           =   5.2233165665575E-06
(PID.TID 0000.0001) %MON forcing_empmr_sd             =   1.0405654354653E-04
(PID.TID 0000.0001) %MON forcing_empmr_del2           =   4.6413804881504E-07
(PID.TID 0000.0001) %MON forcing_fu_max               =   1.1007813763893E+00
(PID.TID 0000.0001) %MON forcing_fu_min               =  -1.9216799962921E+00
(PID.TID 0000.0001) %MON forcing_fu_mean              =   1.3609109702873E-02
(PID.TID 0000.0001) %MON forcing_fu_sd                =   1.1156515171968E-01
(PID.TID 0000.0001) %MON forcing_fu_del2              =   1.0756997659052E-04
(PID.TID 0000.0001) %MON forcing_fv_max               =   1.2448593054412E+00
(PID.TID 0000.0001) %MON forcing_fv_min               =  -8.5859100990394E-01
(PID.TID 0000.0001) %MON forcing_fv_mean              =   2.0425647328070E-03
(PID.TID 0000.0001) %MON forcing_fv_sd                =   1.2097778373310E-01
(PID.TID 0000.0001) %MON forcing_fv_del2              =   1.0213095824212E-04
(PID.TID 0000.0001) %MON trAdv_CFL_u_max              =   9.3109453866554E-02
(PID.TID 0000.0001) %MON trAdv_CFL_v_max              =   5.0503305721536E-02
(PID.TID 0000.0001) %MON trAdv_CFL_w_max              =   2.0540583083277E-01
(PID.TID 0000.0001) %MON advcfl_uvel_max              =   9.6158838391349E-02
(PID.TID 0000.0001) %MON advcfl_vvel_max              =   5.1599110237242E-02
(PID.TID 0000.0001) %MON advcfl_wvel_max              =   2.0617723084140E-01
(PID.TID 0000.0001) %MON advcfl_W_hf_max              =   2.1612441572227E-01
(PID.TID 0000.0001) %MON pe_b_mean                    =   4.3256891470276E-04
(PID.TID 0000.0001) %MON ke_max                       =   6.5774470650138E-01
(PID.TID 0000.0001) %MON ke_mean                      =   5.0256188926251E-04
(PID.TID 0000.0001) %MON ke_vol                       =   1.3349971095002E+18
(PID.TID 0000.0001) %MON vort_r_min                   =  -3.4854907569366E-05
(PID.TID 0000.0001) %MON vort_r_max                   =   2.5826727277979E-05
(PID.TID 0000.0001) %MON vort_a_mean                  =  -1.9727864647440E-05
(PID.TID 0000.0001) %MON vort_a_sd                    =   7.4543298013969E-05
(PID.TID 0000.0001) %MON vort_p_mean                  =  -2.1760538701327E-05
(PID.TID 0000.0001) %MON vort_p_sd                    =   9.7242149653955E-05
(PID.TID 0000.0001) %MON surfExpan_theta_mean         =   1.6792794486493E-07
(PID.TID 0000.0001) %MON surfExpan_salt_mean          =   2.9976544629062E-08
(PID.TID 0000.0001) // =======================================================
(PID.TID 0000.0001) // End MONITOR dynamic field statistics
(PID.TID 0000.0001) // =======================================================
(PID.TID 0000.0001) // =======================================================
(PID.TID 0000.0001) // Begin MONITOR SEAICE statistics
(PID.TID 0000.0001) // =======================================================
(PID.TID 0000.0001) %MON seaice_tsnumber              =                    30
(PID.TID 0000.0001) %MON seaice_time_sec              =   1.0800000000000E+05
(PID.TID 0000.0001) %MON seaice_uice_max              =   4.0000000000000E-01
(PID.TID 0000.0001) %MON seaice_uice_min              =  -4.0000000000000E-01
(PID.TID 0000.0001) %MON seaice_uice_mean             =   5.7089656993432E-03
(PID.TID 0000.0001) %MON seaice_uice_sd               =   1.8425906321244E-01
(PID.TID 0000.0001) %MON seaice_uice_del2             =   1.9059281207313E-04
(PID.TID 0000.0001) %MON seaice_vice_max              =   4.0000000000000E-01
(PID.TID 0000.0001) %MON seaice_vice_min              =  -4.0000000000000E-01
(PID.TID 0000.0001) %MON seaice_vice_mean             =  -1.2983325181943E-02
(PID.TID 0000.0001) %MON seaice_vice_sd               =   2.0491531067857E-01
(PID.TID 0000.0001) %MON seaice_vice_del2             =   2.0787544670511E-04
(PID.TID 0000.0001) %MON seaice_area_max              =   9.5000000000000E-01
(PID.TID 0000.0001) %MON seaice_area_min              =   0.0000000000000E+00
(PID.TID 0000.0001) %MON seaice_area_mean             =   3.8906908656344E-02
(PID.TID 0000.0001) %MON seaice_area_sd               =   1.7859260661476E-01
(PID.TID 0000.0001) %MON seaice_area_del2             =   2.6417856246976E-04
(PID.TID 0000.0001) %MON seaice_heff_max              =   4.5356556441241E+00
(PID.TID 0000.0001) %MON seaice_heff_min              =   0.0000000000000E+00
(PID.TID 0000.0001) %MON seaice_heff_mean             =   5.3541076995943E-02
(PID.TID 0000.0001) %MON seaice_heff_sd               =   3.0627599042234E-01
(PID.TID 0000.0001) %MON seaice_heff_del2             =   3.0773883008396E-04
(PID.TID 0000.0001) %MON seaice_hsnow_max             =   9.7245455458830E-01
(PID.TID 0000.0001) %MON seaice_hsnow_min             =  -2.9818247608433E-05
(PID.TID 0000.0001) %MON seaice_hsnow_mean            =   5.2341202574097E-03
(PID.TID 0000.0001) %MON seaice_hsnow_sd              =   3.1442301990223E-02
(PID.TID 0000.0001) %MON seaice_hsnow_del2            =   5.3117290514712E-05
(PID.TID 0000.0001) // =======================================================
(PID.TID 0000.0001) // End MONITOR SEAICE statistics
(PID.TID 0000.0001) // =======================================================
(PID.TID 0000.0001) // =======================================================
(PID.TID 0000.0001) // Begin MONITOR EXF statistics
(PID.TID 0000.0001) // =======================================================
(PID.TID 0000.0001) %MON exf_tsnumber                 =                    30
(PID.TID 0000.0001) %MON exf_time_sec                 =   1.0800000000000E+05
(PID.TID 0000.0001) %MON exf_ustress_max              =   1.5651666330233E+00
(PID.TID 0000.0001) %MON exf_ustress_min              =  -2.3002354842930E+00
(PID.TID 0000.0001) %MON exf_ustress_mean             =   1.4224568761802E-02
(PID.TID 0000.0001) %MON exf_ustress_sd               =   1.0560928003152E-01
(PID.TID 0000.0001) %MON exf_ustress_del2             =   1.0016250040828E-04
(PID.TID 0000.0001) %MON exf_vstress_max              =   1.0197472051314E+00
(PID.TID 0000.0001) %MON exf_vstress_min              =  -7.4668991565705E-01
(PID.TID 0000.0001) %MON exf_vstress_mean             =   9.6377836631820E-04
(PID.TID 0000.0001) %MON exf_vstress_sd               =   1.1373150997438E-01
(PID.TID 0000.0001) %MON exf_vstress_del2             =   8.7647022501380E-05
(PID.TID 0000.0001) %MON exf_hflux_max                =   1.3641419045481E+03
(PID.TID 0000.0001) %MON exf_hflux_min                =  -5.8505393548609E+02
(PID.TID 0000.0001) %MON exf_hflux_mean               =   1.2991261164258E+00
(PID.TID 0000.0001) %MON exf_hflux_sd                 =   2.3345798059573E+02
(PID.TID 0000.0001) %MON exf_hflux_del2               =   4.2061157118357E-01
(PID.TID 0000.0001) %MON exf_sflux_max                =   2.6038670025994E-07
(PID.TID 0000.0001) %MON exf_sflux_min                =  -2.1018164552715E-06
(PID.TID 0000.0001) %MON exf_sflux_mean               =   5.7983458395041E-09
(PID.TID 0000.0001) %MON exf_sflux_sd                 =   8.7098110308134E-08
(PID.TID 0000.0001) %MON exf_sflux_del2               =   2.0831624211577E-10
(PID.TID 0000.0001) %MON exf_wspeed_max               =   2.1525287628174E+01
(PID.TID 0000.0001) %MON exf_wspeed_min               =   4.3789063394070E-01
(PID.TID 0000.0001) %MON exf_wspeed_mean              =   6.9136464744294E+00
(PID.TID 0000.0001) %MON exf_wspeed_sd                =   3.0844812548682E+00
(PID.TID 0000.0001) %MON exf_wspeed_del2              =   1.1790021985969E-02
(PID.TID 0000.0001) %MON exf_atemp_max                =   3.0366305198669E+02
(PID.TID 0000.0001) %MON exf_atemp_min                =   2.2897029724121E+02
(PID.TID 0000.0001) %MON exf_atemp_mean               =   2.8906872687692E+02
(PID.TID 0000.0001) %MON exf_atemp_sd                 =   1.2315925007125E+01
(PID.TID 0000.0001) %MON exf_atemp_del2               =   2.6534029727708E-02
(PID.TID 0000.0001) %MON exf_aqh_max                  =   2.2116142325103E-02
(PID.TID 0000.0001) %MON exf_aqh_min                  =   7.8688917710679E-05
(PID.TID 0000.0001) %MON exf_aqh_mean                 =   1.0819389582898E-02
(PID.TID 0000.0001) %MON exf_aqh_sd                   =   5.5860391174249E-03
(PID.TID 0000.0001) %MON exf_aqh_del2                 =   1.4492529173445E-05
(PID.TID 0000.0001) %MON exf_lwflux_max               =   2.1731996608416E+02
(PID.TID 0000.0001) %MON exf_lwflux_min               =  -2.1383653846171E+01
(PID.TID 0000.0001) %MON exf_lwflux_mean              =   4.9220885904351E+01
(PID.TID 0000.0001) %MON exf_lwflux_sd                =   2.9331928020809E+01
(PID.TID 0000.0001) %MON exf_lwflux_del2              =   1.0249818877523E-01
(PID.TID 0000.0001) %MON exf_evap_max                 =   2.6581010400587E-07
(PID.TID 0000.0001) %MON exf_evap_min                 =  -2.8195643544665E-08
(PID.TID 0000.0001) %MON exf_evap_mean                =   4.6135694898980E-08
(PID.TID 0000.0001) %MON exf_evap_sd                  =   2.9267965668127E-08
(PID.TID 0000.0001) %MON exf_evap_del2                =   7.2975899332700E-11
(PID.TID 0000.0001) %MON exf_precip_max               =   2.1219447319254E-06
(PID.TID 0000.0001) %MON exf_precip_min               =  -1.5173253764544E-08
(PID.TID 0000.0001) %MON exf_precip_mean              =   3.7303959077997E-08
(PID.TID 0000.0001) %MON exf_precip_sd                =   7.7119825067204E-08
(PID.TID 0000.0001) %MON exf_precip_del2              =   2.0365519810052E-10
(PID.TID 0000.0001) %MON exf_swflux_max               =   2.5198406897253E+01
(PID.TID 0000.0001) %MON exf_swflux_min               =  -7.1557624157587E+02
(PID.TID 0000.0001) %MON exf_swflux_mean              =  -1.9376876748591E+02
(PID.TID 0000.0001) %MON exf_swflux_sd                =   1.7630454615070E+02
(PID.TID 0000.0001) %MON exf_swflux_del2              =   3.6393509443376E-01
(PID.TID 0000.0001) %MON exf_swdown_max               =   7.7210653686523E+02
(PID.TID 0000.0001) %MON exf_swdown_min               =  -3.3769964218140E+01
(PID.TID 0000.0001) %MON exf_swdown_mean              =   2.1019107820258E+02
(PID.TID 0000.0001) %MON exf_swdown_sd                =   1.9040394856546E+02
(PID.TID 0000.0001) %MON exf_swdown_del2              =   3.9533262229724E-01
(PID.TID 0000.0001) %MON exf_lwdown_max               =   4.6127194213867E+02
(PID.TID 0000.0001) %MON exf_lwdown_min               =   8.2632835388184E+01
(PID.TID 0000.0001) %MON exf_lwdown_mean              =   3.6246912672892E+02
(PID.TID 0000.0001) %MON exf_lwdown_sd                =   6.6014034621691E+01
(PID.TID 0000.0001) %MON exf_lwdown_del2              =   4.8474385815805E-01
(PID.TID 0000.0001) %MON exf_runoff_max               =   2.0686221385022E-06
(PID.TID 0000.0001) %MON exf_runoff_min               =   0.0000000000000E+00
(PID.TID 0000.0001) %MON exf_runoff_mean              =   3.0333899814788E-09
(PID.TID 0000.0001) %MON exf_runoff_sd                =   2.4258164916263E-08
(PID.TID 0000.0001) %MON exf_runoff_del2              =   1.8229957496974E-11
(PID.TID 0000.0001) // =======================================================
(PID.TID 0000.0001) // End MONITOR EXF statistics
(PID.TID 0000.0001) // =======================================================
 SEAICE_LSR: Residual Initial ipass,Uice,Vice=    1  1.38688295E-01  1.60002925E-01
 SEAICE_LSR: Residual FrDrift U_fd,V_fd=  5.77440472E+01  7.94891695E+01
 SEAICE_LSR (ipass=   1) iters,dU,Resid=   420  1.98698446E-04  2.10829009E-03
 SEAICE_LSR (ipass=   1) iters,dV,Resid=   420  1.93536718E-05  2.27162476E-04
 SEAICE_LSR: Residual Initial ipass,Uice,Vice=    2  1.87750357E-01  1.83067477E-01
 SEAICE_LSR: Residual FrDrift U_fd,V_fd=  5.44460384E+01  7.70349897E+01
 SEAICE_LSR (ipass=   2) iters,dU,Resid=    72  1.93927138E-04  1.11973153E-03
 SEAICE_LSR (ipass=   2) iters,dV,Resid=    72  9.95792267E-05  6.26565165E-04
 cg2d: Sum(rhs),rhsMax =   4.30568393001710E+00  3.22662773063169E-01
 cg2d: Sum(rhs),rhsMax =   4.33811072264843E+00  3.25794496906968E-01
(PID.TID 0000.0001)      cg2d_init_res =   2.70524073157259E-01
(PID.TID 0000.0001)      cg2d_iters(min,last) =      -1      85
(PID.TID 0000.0001)      cg2d_last_res =   6.89124129032122E-06
(PID.TID 0000.0001) // =======================================================
(PID.TID 0000.0001) // Begin MONITOR dynamic field statistics
(PID.TID 0000.0001) // =======================================================
(PID.TID 0000.0001) %MON time_tsnumber                =                    32
(PID.TID 0000.0001) %MON time_secondsf                =   1.1520000000000E+05
(PID.TID 0000.0001) %MON dynstat_eta_max              =   1.1684037208306E+00
(PID.TID 0000.0001) %MON dynstat_eta_min              =  -4.4770726269991E+00
(PID.TID 0000.0001) %MON dynstat_eta_mean             =  -2.1956527546195E-03
(PID.TID 0000.0001) %MON dynstat_eta_sd               =   7.4292370796649E-01
(PID.TID 0000.0001) %MON dynstat_eta_del2             =   2.9420275607783E-04
(PID.TID 0000.0001) %MON dynstat_uvel_max             =   1.0507557008114E+00
(PID.TID 0000.0001) %MON dynstat_uvel_min             =  -7.4255544272359E-01
(PID.TID 0000.0001) %MON dynstat_uvel_mean            =   1.3693848625046E-03
(PID.TID 0000.0001) %MON dynstat_uvel_sd              =   2.1659335828952E-02
(PID.TID 0000.0001) %MON dynstat_uvel_del2            =   1.3888978447086E-05
(PID.TID 0000.0001) %MON dynstat_vvel_max             =   1.1520005723817E+00
(PID.TID 0000.0001) %MON dynstat_vvel_min             =  -9.1122690275162E-01
(PID.TID 0000.0001) %MON dynstat_vvel_mean            =   1.2364436215937E-03
(PID.TID 0000.0001) %MON dynstat_vvel_sd              =   2.3936163822559E-02
(PID.TID 0000.0001) %MON dynstat_vvel_del2            =   1.4454872820335E-05
(PID.TID 0000.0001) %MON dynstat_wvel_max             =   8.5183878533707E-04
(PID.TID 0000.0001) %MON dynstat_wvel_min             =  -1.3803737758522E-03
(PID.TID 0000.0001) %MON dynstat_wvel_mean            =   4.0121479742633E-10
(PID.TID 0000.0001) %MON dynstat_wvel_sd              =   2.7923330319834E-05
(PID.TID 0000.0001) %MON dynstat_wvel_del2            =   2.8975478660570E-08
(PID.TID 0000.0001) %MON dynstat_theta_max            =   3.2572824626087E+01
(PID.TID 0000.0001) %MON dynstat_theta_min            =  -2.0422891768190E+00
(PID.TID 0000.0001) %MON dynstat_theta_mean           =   3.5906496689694E+00
(PID.TID 0000.0001) %MON dynstat_theta_sd             =   4.4364651298730E+00
(PID.TID 0000.0001) %MON dynstat_theta_del2           =   1.0582459090143E-04
(PID.TID 0000.0001) %MON dynstat_salt_max             =   4.0711467323217E+01
(PID.TID 0000.0001) %MON dynstat_salt_min             =   1.7497891789282E+01
(PID.TID 0000.0001) %MON dynstat_salt_mean            =   3.4725694859129E+01
(PID.TID 0000.0001) %MON dynstat_salt_sd              =   3.7886282475673E-01
(PID.TID 0000.0001) %MON dynstat_salt_del2            =   2.5817545427506E-05
(PID.TID 0000.0001) %MON dynstat_sst_max              =   3.2572801696828E+01
(PID.TID 0000.0001) %MON dynstat_sst_min              =  -1.9610528705771E+00
(PID.TID 0000.0001) %MON dynstat_sst_mean             =   1.8517102727745E+01
(PID.TID 0000.0001) %MON dynstat_sst_sd               =   1.0069915179497E+01
(PID.TID 0000.0001) %MON dynstat_sst_del2             =   8.8311773262659E-04
(PID.TID 0000.0001) %MON dynstat_sss_max              =   3.9712755383598E+01
(PID.TID 0000.0001) %MON dynstat_sss_min              =   1.7497891789282E+01
(PID.TID 0000.0001) %MON dynstat_sss_mean             =   3.4721905954147E+01
(PID.TID 0000.0001) %MON dynstat_sss_sd               =   1.2184465457044E+00
(PID.TID 0000.0001) %MON dynstat_sss_del2             =   3.9093366499435E-04
(PID.TID 0000.0001) %MON forcing_qnet_max             =   1.0628653818897E+03
(PID.TID 0000.0001) %MON forcing_qnet_min             =  -5.9756414841626E+02
(PID.TID 0000.0001) %MON forcing_qnet_mean            =  -1.7502337699381E+01
(PID.TID 0000.0001) %MON forcing_qnet_sd              =   2.1910357840179E+02
(PID.TID 0000.0001) %MON forcing_qnet_del2            =   1.6077630721548E-01
(PID.TID 0000.0001) %MON forcing_qsw_max              =   2.5247036968561E+01
(PID.TID 0000.0001) %MON forcing_qsw_min              =  -7.1831513078416E+02
(PID.TID 0000.0001) %MON forcing_qsw_mean             =  -1.9608360643970E+02
(PID.TID 0000.0001) %MON forcing_qsw_sd               =   1.8625105335405E+02
(PID.TID 0000.0001) %MON forcing_qsw_del2             =   8.2768900809768E-02
(PID.TID 0000.0001) %MON forcing_empmr_max            =   1.8789945836203E-03
(PID.TID 0000.0001) %MON forcing_empmr_min            =  -2.0596948074418E-03
(PID.TID 0000.0001) %MON forcing_empmr_mean           =   4.6911561896447E-06
(PID.TID 0000.0001) %MON forcing_empmr_sd             =   1.0438995631160E-04
(PID.TID 0000.0001) %MON forcing_empmr_del2           =   4.6686891291432E-07
(PID.TID 0000.0001) %MON forcing_fu_max               =   1.1307200058101E+00
(PID.TID 0000.0001) %MON forcing_fu_min               =  -2.0403636032964E+00
(PID.TID 0000.0001) %MON forcing_fu_mean              =   1.3448719888599E-02
(PID.TID 0000.0001) %MON forcing_fu_sd                =   1.1289687113660E-01
(PID.TID 0000.0001) %MON forcing_fu_del2              =   1.0855728515693E-04
(PID.TID 0000.0001) %MON forcing_fv_max               =   1.1709787099469E+00
(PID.TID 0000.0001) %MON forcing_fv_min               =  -8.6354748058736E-01
(PID.TID 0000.0001) %MON forcing_fv_mean              =   1.6890829902103E-03
(PID.TID 0000.0001) %MON forcing_fv_sd                =   1.1942315319269E-01
(PID.TID 0000.0001) %MON forcing_fv_del2              =   1.0375274683046E-04
(PID.TID 0000.0001) %MON trAdv_CFL_u_max              =   8.5101090105110E-02
(PID.TID 0000.0001) %MON trAdv_CFL_v_max              =   5.1363830082885E-02
(PID.TID 0000.0001) %MON trAdv_CFL_w_max              =   2.0334808475994E-01
(PID.TID 0000.0001) %MON advcfl_uvel_max              =   8.7444980922855E-02
(PID.TID 0000.0001) %MON advcfl_vvel_max              =   5.1648720462346E-02
(PID.TID 0000.0001) %MON advcfl_wvel_max              =   2.0413266573168E-01
(PID.TID 0000.0001) %MON advcfl_W_hf_max              =   2.1406663030550E-01
(PID.TID 0000.0001) %MON pe_b_mean                    =   4.3206724890048E-04
(PID.TID 0000.0001) %MON ke_max                       =   6.7135802952920E-01
(PID.TID 0000.0001) %MON ke_mean                      =   5.0412389027531E-04
(PID.TID 0000.0001) %MON ke_vol                       =   1.3349970967410E+18
(PID.TID 0000.0001) %MON vort_r_min                   =  -3.2417192031387E-05
(PID.TID 0000.0001) %MON vort_r_max                   =   2.5661696371401E-05
(PID.TID 0000.0001) %MON vort_a_mean                  =  -1.9727864647440E-05
(PID.TID 0000.0001) %MON vort_a_sd                    =   7.4543295335331E-05
(PID.TID 0000.0001) %MON vort_p_mean                  =  -2.1760538886178E-05
(PID.TID 0000.0001) %MON vort_p_sd                    =   9.7242267342612E-05
(PID.TID 0000.0001) %MON surfExpan_theta_mean         =   1.6756275376979E-07
(PID.TID 0000.0001) %MON surfExpan_salt_mean          =   2.6528027158983E-08
(PID.TID 0000.0001) // =======================================================
(PID.TID 0000.0001) // End MONITOR dynamic field statistics
(PID.TID 0000.0001) // =======================================================
(PID.TID 0000.0001) // =======================================================
(PID.TID 0000.0001) // Begin MONITOR SEAICE statistics
(PID.TID 0000.0001) // =======================================================
(PID.TID 0000.0001) %MON seaice_tsnumber              =                    32
(PID.TID 0000.0001) %MON seaice_time_sec              =   1.1520000000000E+05
(PID.TID 0000.0001) %MON seaice_uice_max              =   4.0000000000000E-01
(PID.TID 0000.0001) %MON seaice_uice_min              =  -4.0000000000000E-01
(PID.TID 0000.0001) %MON seaice_uice_mean             =   5.6437867706973E-03
(PID.TID 0000.0001) %MON seaice_uice_sd               =   1.8554007397394E-01
(PID.TID 0000.0001) %MON seaice_uice_del2             =   1.8942722105424E-04
(PID.TID 0000.0001) %MON seaice_vice_max              =   4.0000000000000E-01
(PID.TID 0000.0001) %MON seaice_vice_min              =  -4.0000000000000E-01
(PID.TID 0000.0001) %MON seaice_vice_mean             =  -1.1272409317952E-02
(PID.TID 0000.0001) %MON seaice_vice_sd               =   2.0505320209599E-01
(PID.TID 0000.0001) %MON seaice_vice_del2             =   2.0488769215559E-04
(PID.TID 0000.0001) %MON seaice_area_max              =   9.5000000000000E-01
(PID.TID 0000.0001) %MON seaice_area_min              =   0.0000000000000E+00
(PID.TID 0000.0001) %MON seaice_area_mean             =   3.8859486825703E-02
(PID.TID 0000.0001) %MON seaice_area_sd               =   1.7850704810131E-01
(PID.TID 0000.0001) %MON seaice_area_del2             =   2.6455984918732E-04
(PID.TID 0000.0001) %MON seaice_heff_max              =   4.5616416266525E+00
(PID.TID 0000.0001) %MON seaice_heff_min              =   0.0000000000000E+00
(PID.TID 0000.0001) %MON seaice_heff_mean             =   5.3545231393467E-02
(PID.TID 0000.0001) %MON seaice_heff_sd               =   3.0641335312278E-01
(PID.TID 0000.0001) %MON seaice_heff_del2             =   3.0782011519562E-04
(PID.TID 0000.0001) %MON seaice_hsnow_max             =   9.7166370906498E-01
(PID.TID 0000.0001) %MON seaice_hsnow_min             =  -2.2241983800333E-05
(PID.TID 0000.0001) %MON seaice_hsnow_mean            =   5.2325676321071E-03
(PID.TID 0000.0001) %MON seaice_hsnow_sd              =   3.1438838616792E-02
(PID.TID 0000.0001) %MON seaice_hsnow_del2            =   5.3175631997638E-05
(PID.TID 0000.0001) // =======================================================
(PID.TID 0000.0001) // End MONITOR SEAICE statistics
(PID.TID 0000.0001) // =======================================================
(PID.TID 0000.0001) // =======================================================
(PID.TID 0000.0001) // Begin MONITOR EXF statistics
(PID.TID 0000.0001) // =======================================================
(PID.TID 0000.0001) %MON exf_tsnumber                 =                    32
(PID.TID 0000.0001) %MON exf_time_sec                 =   1.1520000000000E+05
(PID.TID 0000.0001) %MON exf_ustress_max              =   1.6019047360009E+00
(PID.TID 0000.0001) %MON exf_ustress_min              =  -2.2840847128055E+00
(PID.TID 0000.0001) %MON exf_ustress_mean             =   1.4093825043741E-02
(PID.TID 0000.0001) %MON exf_ustress_sd               =   1.0820705497597E-01
(PID.TID 0000.0001) %MON exf_ustress_del2             =   1.0807897521345E-04
(PID.TID 0000.0001) %MON exf_vstress_max              =   9.5075286857959E-01
(PID.TID 0000.0001) %MON exf_vstress_min              =  -7.6425700386365E-01
(PID.TID 0000.0001) %MON exf_vstress_mean             =   5.8818341769992E-04
(PID.TID 0000.0001) %MON exf_vstress_sd               =   1.1368420099728E-01
(PID.TID 0000.0001) %MON exf_vstress_del2             =   9.4318349453131E-05
(PID.TID 0000.0001) %MON exf_hflux_max                =   1.5304762456790E+03
(PID.TID 0000.0001) %MON exf_hflux_min                =  -6.3798101432535E+02
(PID.TID 0000.0001) %MON exf_hflux_mean               =  -7.5864474564218E+00
(PID.TID 0000.0001) %MON exf_hflux_sd                 =   2.6441112364123E+02
(PID.TID 0000.0001) %MON exf_hflux_del2               =   4.5535070190713E-01
(PID.TID 0000.0001) %MON exf_sflux_max                =   2.5652781907067E-07
(PID.TID 0000.0001) %MON exf_sflux_min                =  -2.0603900588108E-06
(PID.TID 0000.0001) %MON exf_sflux_mean               =   5.2483438079114E-09
(PID.TID 0000.0001) %MON exf_sflux_sd                 =   9.0849835233939E-08
(PID.TID 0000.0001) %MON exf_sflux_del2               =   2.4098917110430E-10
(PID.TID 0000.0001) %MON exf_wspeed_max               =   2.3236481030782E+01
(PID.TID 0000.0001) %MON exf_wspeed_min               =   4.6448625127474E-01
(PID.TID 0000.0001) %MON exf_wspeed_mean              =   6.8859435016104E+00
(PID.TID 0000.0001) %MON exf_wspeed_sd                =   3.1323551457252E+00
(PID.TID 0000.0001) %MON exf_wspeed_del2              =   1.1879049229429E-02
(PID.TID 0000.0001) %MON exf_atemp_max                =   3.0434724210103E+02
(PID.TID 0000.0001) %MON exf_atemp_min                =   2.2881908518473E+02
(PID.TID 0000.0001) %MON exf_atemp_mean               =   2.8908303671771E+02
(PID.TID 0000.0001) %MON exf_atemp_sd                 =   1.2316754696921E+01
(PID.TID 0000.0001) %MON exf_atemp_del2               =   2.6507439715745E-02
(PID.TID 0000.0001) %MON exf_aqh_max                  =   2.2940274017553E-02
(PID.TID 0000.0001) %MON exf_aqh_min                  =   7.7508211688837E-05
(PID.TID 0000.0001) %MON exf_aqh_mean                 =   1.0811825277116E-02
(PID.TID 0000.0001) %MON exf_aqh_sd                   =   5.5801144468624E-03
(PID.TID 0000.0001) %MON exf_aqh_del2                 =   1.4473222147506E-05
(PID.TID 0000.0001) %MON exf_lwflux_max               =   2.1893342627484E+02
(PID.TID 0000.0001) %MON exf_lwflux_min               =  -2.2620836584967E+01
(PID.TID 0000.0001) %MON exf_lwflux_mean              =   4.9089339052664E+01
(PID.TID 0000.0001) %MON exf_lwflux_sd                =   2.9524752789777E+01
(PID.TID 0000.0001) %MON exf_lwflux_del2              =   1.0257689386158E-01
(PID.TID 0000.0001) %MON exf_evap_max                 =   2.6201616272183E-07
(PID.TID 0000.0001) %MON exf_evap_min                 =  -3.0909274437489E-08
(PID.TID 0000.0001) %MON exf_evap_mean                =   4.5950664094888E-08
(PID.TID 0000.0001) %MON exf_evap_sd                  =   2.9396858544700E-08
(PID.TID 0000.0001) %MON exf_evap_del2                =   7.3562723564884E-11
(PID.TID 0000.0001) %MON exf_precip_max               =   2.0143118035776E-06
(PID.TID 0000.0001) %MON exf_precip_min               =  -1.5213485286362E-08
(PID.TID 0000.0001) %MON exf_precip_mean              =   3.7669834731125E-08
(PID.TID 0000.0001) %MON exf_precip_sd                =   8.1220872061094E-08
(PID.TID 0000.0001) %MON exf_precip_del2              =   2.3661084233832E-10
(PID.TID 0000.0001) %MON exf_swflux_max               =   2.5295666996028E+01
(PID.TID 0000.0001) %MON exf_swflux_min               =  -7.9829474269569E+02
(PID.TID 0000.0001) %MON exf_swflux_mean              =  -2.0185528394444E+02
(PID.TID 0000.0001) %MON exf_swflux_sd                =   2.1124675172709E+02
(PID.TID 0000.0001) %MON exf_swflux_del2              =   4.0679028332533E-01
(PID.TID 0000.0001) %MON exf_swdown_max               =   8.6128681437174E+02
(PID.TID 0000.0001) %MON exf_swdown_min               =  -3.3900339126587E+01
(PID.TID 0000.0001) %MON exf_swdown_mean              =   2.1892974641719E+02
(PID.TID 0000.0001) %MON exf_swdown_sd                =   2.2818156425424E+02
(PID.TID 0000.0001) %MON exf_swdown_del2              =   4.4162577863661E-01
(PID.TID 0000.0001) %MON exf_lwdown_max               =   4.6147881062826E+02
(PID.TID 0000.0001) %MON exf_lwdown_min               =   8.0969444274902E+01
(PID.TID 0000.0001) %MON exf_lwdown_mean              =   3.6261037529926E+02
(PID.TID 0000.0001) %MON exf_lwdown_sd                =   6.5962326077211E+01
(PID.TID 0000.0001) %MON exf_lwdown_del2              =   4.8503723031983E-01
(PID.TID 0000.0001) %MON exf_runoff_max               =   2.0717762973002E-06
(PID.TID 0000.0001) %MON exf_runoff_min               =   0.0000000000000E+00
(PID.TID 0000.0001) %MON exf_runoff_mean              =   3.0324855558525E-09
(PID.TID 0000.0001) %MON exf_runoff_sd                =   2.4287612633847E-08
(PID.TID 0000.0001) %MON exf_runoff_del2              =   1.8240613640966E-11
(PID.TID 0000.0001) // =======================================================
(PID.TID 0000.0001) // End MONITOR EXF statistics
(PID.TID 0000.0001) // =======================================================
 SEAICE_LSR: Residual Initial ipass,Uice,Vice=    1  1.46057346E-01  1.62379542E-01
 SEAICE_LSR: Residual FrDrift U_fd,V_fd=  5.73902634E+01  8.25293409E+01
 SEAICE_LSR (ipass=   1) iters,dU,Resid=   432  1.99844981E-04  2.11881625E-03
 SEAICE_LSR (ipass=   1) iters,dV,Resid=   432  2.41981117E-05  3.29352229E-04
 SEAICE_LSR: Residual Initial ipass,Uice,Vice=    2  2.20513012E-01  2.02633780E-01
 SEAICE_LSR: Residual FrDrift U_fd,V_fd=  5.43024724E+01  8.02814279E+01
 SEAICE_LSR (ipass=   2) iters,dU,Resid=    72  1.88919776E-04  1.01484236E-03
 SEAICE_LSR (ipass=   2) iters,dV,Resid=    72  7.64559824E-05  6.91662013E-04
 cg2d: Sum(rhs),rhsMax =   4.36862082383705E+00  3.29608276899045E-01
 cg2d: Sum(rhs),rhsMax =   4.39703735561199E+00  3.34424047204340E-01
(PID.TID 0000.0001)      cg2d_init_res =   2.75121338751264E-01
(PID.TID 0000.0001)      cg2d_iters(min,last) =      -1      86
(PID.TID 0000.0001)      cg2d_last_res =   6.84352810780394E-06
(PID.TID 0000.0001) // =======================================================
(PID.TID 0000.0001) // Begin MONITOR dynamic field statistics
(PID.TID 0000.0001) // =======================================================
(PID.TID 0000.0001) %MON time_tsnumber                =                    34
(PID.TID 0000.0001) %MON time_secondsf                =   1.2240000000000E+05
(PID.TID 0000.0001) %MON dynstat_eta_max              =   1.1721325388754E+00
(PID.TID 0000.0001) %MON dynstat_eta_min              =  -4.4175210834854E+00
(PID.TID 0000.0001) %MON dynstat_eta_mean             =  -2.2254773562168E-03
(PID.TID 0000.0001) %MON dynstat_eta_sd               =   7.4276655721332E-01
(PID.TID 0000.0001) %MON dynstat_eta_del2             =   2.9290276297038E-04
(PID.TID 0000.0001) %MON dynstat_uvel_max             =   1.0694650040289E+00
(PID.TID 0000.0001) %MON dynstat_uvel_min             =  -7.4418495280654E-01
(PID.TID 0000.0001) %MON dynstat_uvel_mean            =   1.3735110145932E-03
(PID.TID 0000.0001) %MON dynstat_uvel_sd              =   2.1718600816467E-02
(PID.TID 0000.0001) %MON dynstat_uvel_del2            =   1.3827443856385E-05
(PID.TID 0000.0001) %MON dynstat_vvel_max             =   1.1634356434168E+00
(PID.TID 0000.0001) %MON dynstat_vvel_min             =  -9.2281403868709E-01
(PID.TID 0000.0001) %MON dynstat_vvel_mean            =   1.2299925169483E-03
(PID.TID 0000.0001) %MON dynstat_vvel_sd              =   2.3968672815104E-02
(PID.TID 0000.0001) %MON dynstat_vvel_del2            =   1.4379327769106E-05
(PID.TID 0000.0001) %MON dynstat_wvel_max             =   8.7275761914507E-04
(PID.TID 0000.0001) %MON dynstat_wvel_min             =  -1.5234518305598E-03
(PID.TID 0000.0001) %MON dynstat_wvel_mean            =   6.3132317844249E-10
(PID.TID 0000.0001) %MON dynstat_wvel_sd              =   2.7811259819773E-05
(PID.TID 0000.0001) %MON dynstat_wvel_del2            =   2.8651885567424E-08
(PID.TID 0000.0001) %MON dynstat_theta_max            =   3.2567203001952E+01
(PID.TID 0000.0001) %MON dynstat_theta_min            =  -2.0422539877846E+00
(PID.TID 0000.0001) %MON dynstat_theta_mean           =   3.5906608607894E+00
(PID.TID 0000.0001) %MON dynstat_theta_sd             =   4.4364918317615E+00
(PID.TID 0000.0001) %MON dynstat_theta_del2           =   1.0572359999663E-04
(PID.TID 0000.0001) %MON dynstat_salt_max             =   4.0711462345617E+01
(PID.TID 0000.0001) %MON dynstat_salt_min             =   1.7502394891097E+01
(PID.TID 0000.0001) %MON dynstat_salt_mean            =   3.4725695136659E+01
(PID.TID 0000.0001) %MON dynstat_salt_sd              =   3.7886172655924E-01
(PID.TID 0000.0001) %MON dynstat_salt_del2            =   2.5766642818572E-05
(PID.TID 0000.0001) %MON dynstat_sst_max              =   3.2567183443752E+01
(PID.TID 0000.0001) %MON dynstat_sst_min              =  -1.9610569108054E+00
(PID.TID 0000.0001) %MON dynstat_sst_mean             =   1.8519426564049E+01
(PID.TID 0000.0001) %MON dynstat_sst_sd               =   1.0070005142444E+01
(PID.TID 0000.0001) %MON dynstat_sst_del2             =   8.8225941670429E-04
(PID.TID 0000.0001) %MON dynstat_sss_max              =   3.9712797680883E+01
(PID.TID 0000.0001) %MON dynstat_sss_min              =   1.7502394891097E+01
(PID.TID 0000.0001) %MON dynstat_sss_mean             =   3.4722010315735E+01
(PID.TID 0000.0001) %MON dynstat_sss_sd               =   1.2183134067455E+00
(PID.TID 0000.0001) %MON dynstat_sss_del2             =   3.9032315430401E-04
(PID.TID 0000.0001) %MON forcing_qnet_max             =   1.0757496118850E+03
(PID.TID 0000.0001) %MON forcing_qnet_min             =  -7.5962309856869E+02
(PID.TID 0000.0001) %MON forcing_qnet_mean            =  -2.6210690768228E+01
(PID.TID 0000.0001) %MON forcing_qnet_sd              =   2.7438702751479E+02
(PID.TID 0000.0001) %MON forcing_qnet_del2            =   1.7580534970968E-01
(PID.TID 0000.0001) %MON forcing_qsw_max              =   2.5344296979654E+01
(PID.TID 0000.0001) %MON forcing_qsw_min              =  -9.1734064409241E+02
(PID.TID 0000.0001) %MON forcing_qsw_mean             =  -2.0414038338403E+02
(PID.TID 0000.0001) %MON forcing_qsw_sd               =   2.4612723929194E+02
(PID.TID 0000.0001) %MON forcing_qsw_del2             =   1.0146619245159E-01
(PID.TID 0000.0001) %MON forcing_empmr_max            =   1.8445756117726E-03
(PID.TID 0000.0001) %MON forcing_empmr_min            =  -2.1335975921055E-03
(PID.TID 0000.0001) %MON forcing_empmr_mean           =   4.1109952020661E-06
(PID.TID 0000.0001) %MON forcing_empmr_sd             =   1.1008416484803E-04
(PID.TID 0000.0001) %MON forcing_empmr_del2           =   4.8898432416796E-07
(PID.TID 0000.0001) %MON forcing_fu_max               =   1.1606586352310E+00
(PID.TID 0000.0001) %MON forcing_fu_min               =  -2.0428917590862E+00
(PID.TID 0000.0001) %MON forcing_fu_mean              =   1.3283676759918E-02
(PID.TID 0000.0001) %MON forcing_fu_sd                =   1.1676189747664E-01
(PID.TID 0000.0001) %MON forcing_fu_del2              =   1.2016822526159E-04
(PID.TID 0000.0001) %MON forcing_fv_max               =   1.0999815922380E+00
(PID.TID 0000.0001) %MON forcing_fv_min               =  -1.0180407480152E+00
(PID.TID 0000.0001) %MON forcing_fv_mean              =   1.3105973052677E-03
(PID.TID 0000.0001) %MON forcing_fv_sd                =   1.2046034887028E-01
(PID.TID 0000.0001) %MON forcing_fv_del2              =   1.1202871101931E-04
(PID.TID 0000.0001) %MON trAdv_CFL_u_max              =   7.7036506140934E-02
(PID.TID 0000.0001) %MON trAdv_CFL_v_max              =   5.2015244537032E-02
(PID.TID 0000.0001) %MON trAdv_CFL_w_max              =   2.1053552494186E-01
(PID.TID 0000.0001) %MON advcfl_uvel_max              =   7.8669990077728E-02
(PID.TID 0000.0001) %MON advcfl_vvel_max              =   5.3811981313488E-02
(PID.TID 0000.0001) %MON advcfl_wvel_max              =   2.0590232229594E-01
(PID.TID 0000.0001) %MON advcfl_W_hf_max              =   2.1569955776219E-01
(PID.TID 0000.0001) %MON pe_b_mean                    =   4.3152187001111E-04
(PID.TID 0000.0001) %MON ke_max                       =   6.8533628657323E-01
(PID.TID 0000.0001) %MON ke_mean                      =   5.0611214933571E-04
(PID.TID 0000.0001) %MON ke_vol                       =   1.3349970853367E+18
(PID.TID 0000.0001) %MON vort_r_min                   =  -2.9829475790057E-05
(PID.TID 0000.0001) %MON vort_r_max                   =   2.5449462868384E-05
(PID.TID 0000.0001) %MON vort_a_mean                  =  -1.9727864647440E-05
(PID.TID 0000.0001) %MON vort_a_sd                    =   7.4543293587460E-05
(PID.TID 0000.0001) %MON vort_p_mean                  =  -2.1760539052529E-05
(PID.TID 0000.0001) %MON vort_p_sd                    =   9.7242357064346E-05
(PID.TID 0000.0001) %MON surfExpan_theta_mean         =   1.5275305599547E-07
(PID.TID 0000.0001) %MON surfExpan_salt_mean          =   2.2893212169507E-08
(PID.TID 0000.0001) // =======================================================
(PID.TID 0000.0001) // End MONITOR dynamic field statistics
(PID.TID 0000.0001) // =======================================================
(PID.TID 0000.0001) // =======================================================
(PID.TID 0000.0001) // Begin MONITOR SEAICE statistics
(PID.TID 0000.0001) // =======================================================
(PID.TID 0000.0001) %MON seaice_tsnumber              =                    34
(PID.TID 0000.0001) %MON seaice_time_sec              =   1.2240000000000E+05
(PID.TID 0000.0001) %MON seaice_uice_max              =   4.0000000000000E-01
(PID.TID 0000.0001) %MON seaice_uice_min              =  -4.0000000000000E-01
(PID.TID 0000.0001) %MON seaice_uice_mean             =   5.5708390640768E-03
(PID.TID 0000.0001) %MON seaice_uice_sd               =   1.8766095904774E-01
(PID.TID 0000.0001) %MON seaice_uice_del2             =   1.9337396165621E-04
(PID.TID 0000.0001) %MON seaice_vice_max              =   4.0000000000000E-01
(PID.TID 0000.0001) %MON seaice_vice_min              =  -4.0000000000000E-01
(PID.TID 0000.0001) %MON seaice_vice_mean             =  -9.8007176350049E-03
(PID.TID 0000.0001) %MON seaice_vice_sd               =   2.0540644724455E-01
(PID.TID 0000.0001) %MON seaice_vice_del2             =   2.1251350773683E-04
(PID.TID 0000.0001) %MON seaice_area_max              =   9.5000000000000E-01
(PID.TID 0000.0001) %MON seaice_area_min              =   0.0000000000000E+00
(PID.TID 0000.0001) %MON seaice_area_mean             =   3.8797639581236E-02
(PID.TID 0000.0001) %MON seaice_area_sd               =   1.7839134034172E-01
(PID.TID 0000.0001) %MON seaice_area_del2             =   2.6736785751437E-04
(PID.TID 0000.0001) %MON seaice_heff_max              =   4.4972408254639E+00
(PID.TID 0000.0001) %MON seaice_heff_min              =   0.0000000000000E+00
(PID.TID 0000.0001) %MON seaice_heff_mean             =   5.3549224003472E-02
(PID.TID 0000.0001) %MON seaice_heff_sd               =   3.0655352283288E-01
(PID.TID 0000.0001) %MON seaice_heff_del2             =   3.0628878642208E-04
(PID.TID 0000.0001) %MON seaice_hsnow_max             =   9.7087659356210E-01
(PID.TID 0000.0001) %MON seaice_hsnow_min             =  -2.2237726649088E-05
(PID.TID 0000.0001) %MON seaice_hsnow_mean            =   5.2308545118078E-03
(PID.TID 0000.0001) %MON seaice_hsnow_sd              =   3.1432055124225E-02
(PID.TID 0000.0001) %MON seaice_hsnow_del2            =   5.3166703040484E-05
(PID.TID 0000.0001) // =======================================================
(PID.TID 0000.0001) // End MONITOR SEAICE statistics
(PID.TID 0000.0001) // =======================================================
(PID.TID 0000.0001) // =======================================================
(PID.TID 0000.0001) // Begin MONITOR EXF statistics
(PID.TID 0000.0001) // =======================================================
(PID.TID 0000.0001) %MON exf_tsnumber                 =                    34
(PID.TID 0000.0001) %MON exf_time_sec                 =   1.2240000000000E+05
(PID.TID 0000.0001) %MON exf_ustress_max              =   1.5846849037662E+00
(PID.TID 0000.0001) %MON exf_ustress_min              =  -2.2273786506141E+00
(PID.TID 0000.0001) %MON exf_ustress_mean             =   1.3825407934032E-02
(PID.TID 0000.0001) %MON exf_ustress_sd               =   1.0854591604335E-01
(PID.TID 0000.0001) %MON exf_ustress_del2             =   1.0917281315856E-04
(PID.TID 0000.0001) %MON exf_vstress_max              =   9.3789625167846E-01
(PID.TID 0000.0001) %MON exf_vstress_min              =  -7.8800927599271E-01
(PID.TID 0000.0001) %MON exf_vstress_mean             =   4.4827731465230E-04
(PID.TID 0000.0001) %MON exf_vstress_sd               =   1.1223894655691E-01
(PID.TID 0000.0001) %MON exf_vstress_del2             =   9.4296872740448E-05
(PID.TID 0000.0001) %MON exf_hflux_max                =   1.4985854985523E+03
(PID.TID 0000.0001) %MON exf_hflux_min                =  -6.6012736588962E+02
(PID.TID 0000.0001) %MON exf_hflux_mean               =  -9.6509597730482E+00
(PID.TID 0000.0001) %MON exf_hflux_sd                 =   2.6258642034584E+02
(PID.TID 0000.0001) %MON exf_hflux_del2               =   4.5343723041358E-01
(PID.TID 0000.0001) %MON exf_sflux_max                =   2.5107880614841E-07
(PID.TID 0000.0001) %MON exf_sflux_min                =  -2.5583179051394E-06
(PID.TID 0000.0001) %MON exf_sflux_mean               =   5.3896827910431E-09
(PID.TID 0000.0001) %MON exf_sflux_sd                 =   9.0698811489464E-08
(PID.TID 0000.0001) %MON exf_sflux_del2               =   2.5074781429634E-10
(PID.TID 0000.0001) %MON exf_wspeed_max               =   2.3282810529073E+01
(PID.TID 0000.0001) %MON exf_wspeed_min               =   3.7212937573592E-01
(PID.TID 0000.0001) %MON exf_wspeed_mean              =   6.8769280239752E+00
(PID.TID 0000.0001) %MON exf_wspeed_sd                =   3.1307442876807E+00
(PID.TID 0000.0001) %MON exf_wspeed_del2              =   1.1875952419607E-02
(PID.TID 0000.0001) %MON exf_atemp_max                =   3.0393632418315E+02
(PID.TID 0000.0001) %MON exf_atemp_min                =   2.2841771036784E+02
(PID.TID 0000.0001) %MON exf_atemp_mean               =   2.8909695107011E+02
(PID.TID 0000.0001) %MON exf_atemp_sd                 =   1.2321873706579E+01
(PID.TID 0000.0001) %MON exf_atemp_del2               =   2.6500870825441E-02
(PID.TID 0000.0001) %MON exf_aqh_max                  =   2.2753680124879E-02
(PID.TID 0000.0001) %MON exf_aqh_min                  =   7.5513866856151E-05
(PID.TID 0000.0001) %MON exf_aqh_mean                 =   1.0816830178504E-02
(PID.TID 0000.0001) %MON exf_aqh_sd                   =   5.5820528943451E-03
(PID.TID 0000.0001) %MON exf_aqh_del2                 =   1.4477922471025E-05
(PID.TID 0000.0001) %MON exf_lwflux_max               =   2.2017842720119E+02
(PID.TID 0000.0001) %MON exf_lwflux_min               =  -2.1008342972264E+01
(PID.TID 0000.0001) %MON exf_lwflux_mean              =   4.9113032768365E+01
(PID.TID 0000.0001) %MON exf_lwflux_sd                =   2.9374892629305E+01
(PID.TID 0000.0001) %MON exf_lwflux_del2              =   1.0225285860005E-01
(PID.TID 0000.0001) %MON exf_evap_max                 =   2.5679648035405E-07
(PID.TID 0000.0001) %MON exf_evap_min                 =  -2.7601289617045E-08
(PID.TID 0000.0001) %MON exf_evap_mean                =   4.5859177015930E-08
(PID.TID 0000.0001) %MON exf_evap_sd                  =   2.9342847063087E-08
(PID.TID 0000.0001) %MON exf_evap_del2                =   7.3452649631165E-11
(PID.TID 0000.0001) %MON exf_precip_max               =   2.5892656670597E-06
(PID.TID 0000.0001) %MON exf_precip_min               =  -1.5253716512120E-08
(PID.TID 0000.0001) %MON exf_precip_mean              =   3.7437913094661E-08
(PID.TID 0000.0001) %MON exf_precip_sd                =   8.1134690051306E-08
(PID.TID 0000.0001) %MON exf_precip_del2              =   2.4627220586194E-10
(PID.TID 0000.0001) %MON exf_swflux_max               =   2.5358961319638E+01
(PID.TID 0000.0001) %MON exf_swflux_min               =  -8.0589229979478E+02
(PID.TID 0000.0001) %MON exf_swflux_mean              =  -2.0354339546418E+02
(PID.TID 0000.0001) %MON exf_swflux_sd                =   2.1021535051878E+02
(PID.TID 0000.0001) %MON exf_swflux_del2              =   4.0657528878685E-01
(PID.TID 0000.0001) %MON exf_swdown_max               =   8.6948433939616E+02
(PID.TID 0000.0001) %MON exf_swdown_min               =  -3.3985194524129E+01
(PID.TID 0000.0001) %MON exf_swdown_mean              =   2.2073390296155E+02
(PID.TID 0000.0001) %MON exf_swdown_sd                =   2.2709013808233E+02
(PID.TID 0000.0001) %MON exf_swdown_del2              =   4.4130511524348E-01
(PID.TID 0000.0001) %MON exf_lwdown_max               =   4.6177487691243E+02
(PID.TID 0000.0001) %MON exf_lwdown_min               =   7.9685905456543E+01
(PID.TID 0000.0001) %MON exf_lwdown_mean              =   3.6259909590943E+02
(PID.TID 0000.0001) %MON exf_lwdown_sd                =   6.5847876085178E+01
(PID.TID 0000.0001) %MON exf_lwdown_del2              =   4.8477770232375E-01
(PID.TID 0000.0001) %MON exf_runoff_max               =   2.0749304560981E-06
(PID.TID 0000.0001) %MON exf_runoff_min               =   0.0000000000000E+00
(PID.TID 0000.0001) %MON exf_runoff_mean              =   3.0315811302263E-09
(PID.TID 0000.0001) %MON exf_runoff_sd                =   2.4317077931794E-08
(PID.TID 0000.0001) %MON exf_runoff_del2              =   1.8251294447064E-11
(PID.TID 0000.0001) // =======================================================
(PID.TID 0000.0001) // End MONITOR EXF statistics
(PID.TID 0000.0001) // =======================================================
 SEAICE_LSR: Residual Initial ipass,Uice,Vice=    1  1.46891967E-01  1.61668986E-01
 SEAICE_LSR: Residual FrDrift U_fd,V_fd=  6.12913938E+01  8.53760085E+01
 SEAICE_LSR (ipass=   1) iters,dU,Resid=   446  1.98777858E-04  2.10596293E-03
 SEAICE_LSR (ipass=   1) iters,dV,Resid=   446  1.67942533E-05  4.65543017E-04
 SEAICE_LSR: Residual Initial ipass,Uice,Vice=    2  3.44357240E-01  2.52629524E-01
 SEAICE_LSR: Residual FrDrift U_fd,V_fd=  5.64837796E+01  8.19130257E+01
 SEAICE_LSR (ipass=   2) iters,dU,Resid=    70  1.93256792E-04  9.18027846E-04
 SEAICE_LSR (ipass=   2) iters,dV,Resid=    70  6.41639308E-05  8.85452174E-04
 cg2d: Sum(rhs),rhsMax =   4.42784055459270E+00  3.39737458357036E-01
 cg2d: Sum(rhs),rhsMax =   4.46113596895901E+00  3.45393926534463E-01
(PID.TID 0000.0001)      cg2d_init_res =   2.80236929345964E-01
(PID.TID 0000.0001)      cg2d_iters(min,last) =      -1      88
(PID.TID 0000.0001)      cg2d_last_res =   6.92758134817096E-06
(PID.TID 0000.0001) // =======================================================
(PID.TID 0000.0001) // Begin MONITOR dynamic field statistics
(PID.TID 0000.0001) // =======================================================
(PID.TID 0000.0001) %MON time_tsnumber                =                    36
(PID.TID 0000.0001) %MON time_secondsf                =   1.2960000000000E+05
(PID.TID 0000.0001) %MON dynstat_eta_max              =   1.2022175357911E+00
(PID.TID 0000.0001) %MON dynstat_eta_min              =  -4.3406981719640E+00
(PID.TID 0000.0001) %MON dynstat_eta_mean             =  -2.2579196579373E-03
(PID.TID 0000.0001) %MON dynstat_eta_sd               =   7.4259317355186E-01
(PID.TID 0000.0001) %MON dynstat_eta_del2             =   2.9141095638825E-04
(PID.TID 0000.0001) %MON dynstat_uvel_max             =   1.0790004693947E+00
(PID.TID 0000.0001) %MON dynstat_uvel_min             =  -7.1300797130426E-01
(PID.TID 0000.0001) %MON dynstat_uvel_mean            =   1.3801571959163E-03
(PID.TID 0000.0001) %MON dynstat_uvel_sd              =   2.1737472800668E-02
(PID.TID 0000.0001) %MON dynstat_uvel_del2            =   1.3765805868132E-05
(PID.TID 0000.0001) %MON dynstat_vvel_max             =   1.1710244900448E+00
(PID.TID 0000.0001) %MON dynstat_vvel_min             =  -9.3063434534346E-01
(PID.TID 0000.0001) %MON dynstat_vvel_mean            =   1.2235169829184E-03
(PID.TID 0000.0001) %MON dynstat_vvel_sd              =   2.3997986768937E-02
(PID.TID 0000.0001) %MON dynstat_vvel_del2            =   1.4310859392225E-05
(PID.TID 0000.0001) %MON dynstat_wvel_max             =   8.4146248348419E-04
(PID.TID 0000.0001) %MON dynstat_wvel_min             =  -1.6178162614631E-03
(PID.TID 0000.0001) %MON dynstat_wvel_mean            =   3.8183740198047E-10
(PID.TID 0000.0001) %MON dynstat_wvel_sd              =   2.7684508047848E-05
(PID.TID 0000.0001) %MON dynstat_wvel_del2            =   2.8372023817267E-08
(PID.TID 0000.0001) %MON dynstat_theta_max            =   3.2576706213165E+01
(PID.TID 0000.0001) %MON dynstat_theta_min            =  -2.0422141492089E+00
(PID.TID 0000.0001) %MON dynstat_theta_mean           =   3.5906714622535E+00
(PID.TID 0000.0001) %MON dynstat_theta_sd             =   4.4365215158297E+00
(PID.TID 0000.0001) %MON dynstat_theta_del2           =   1.0564660145506E-04
(PID.TID 0000.0001) %MON dynstat_salt_max             =   4.0711457269937E+01
(PID.TID 0000.0001) %MON dynstat_salt_min             =   1.7506507839623E+01
(PID.TID 0000.0001) %MON dynstat_salt_mean            =   3.4725695435428E+01
(PID.TID 0000.0001) %MON dynstat_salt_sd              =   3.7886063515585E-01
(PID.TID 0000.0001) %MON dynstat_salt_del2            =   2.5723115565663E-05
(PID.TID 0000.0001) %MON dynstat_sst_max              =   3.2576702128368E+01
(PID.TID 0000.0001) %MON dynstat_sst_min              =  -1.9610483763166E+00
(PID.TID 0000.0001) %MON dynstat_sst_mean             =   1.8521417288864E+01
(PID.TID 0000.0001) %MON dynstat_sst_sd               =   1.0070379700350E+01
(PID.TID 0000.0001) %MON dynstat_sst_del2             =   8.8079890509336E-04
(PID.TID 0000.0001) %MON dynstat_sss_max              =   3.9713288759461E+01
(PID.TID 0000.0001) %MON dynstat_sss_min              =   1.7506507839623E+01
(PID.TID 0000.0001) %MON dynstat_sss_mean             =   3.4722128120232E+01
(PID.TID 0000.0001) %MON dynstat_sss_sd               =   1.2182349949632E+00
(PID.TID 0000.0001) %MON dynstat_sss_del2             =   3.8971845408965E-04
(PID.TID 0000.0001) %MON forcing_qnet_max             =   1.0901815030926E+03
(PID.TID 0000.0001) %MON forcing_qnet_min             =  -6.1685126479524E+02
(PID.TID 0000.0001) %MON forcing_qnet_mean            =  -2.1630712122359E+01
(PID.TID 0000.0001) %MON forcing_qnet_sd              =   2.1510316754304E+02
(PID.TID 0000.0001) %MON forcing_qnet_del2            =   1.6490520410741E-01
(PID.TID 0000.0001) %MON forcing_qsw_max              =   2.5373625646395E+01
(PID.TID 0000.0001) %MON forcing_qsw_min              =  -7.1742928782538E+02
(PID.TID 0000.0001) %MON forcing_qsw_mean             =  -1.9950064477888E+02
(PID.TID 0000.0001) %MON forcing_qsw_sd               =   1.8370967692853E+02
(PID.TID 0000.0001) %MON forcing_qsw_del2             =   8.3645240788824E-02
(PID.TID 0000.0001) %MON forcing_empmr_max            =   1.7642972306244E-03
(PID.TID 0000.0001) %MON forcing_empmr_min            =  -3.0512503088714E-03
(PID.TID 0000.0001) %MON forcing_empmr_mean           =   4.8168189486589E-06
(PID.TID 0000.0001) %MON forcing_empmr_sd             =   1.0469899634880E-04
(PID.TID 0000.0001) %MON forcing_empmr_del2           =   4.8357399262286E-07
(PID.TID 0000.0001) %MON forcing_fu_max               =   1.1437384850480E+00
(PID.TID 0000.0001) %MON forcing_fu_min               =  -1.9564667228278E+00
(PID.TID 0000.0001) %MON forcing_fu_mean              =   1.2868521683493E-02
(PID.TID 0000.0001) %MON forcing_fu_sd                =   1.1346556083994E-01
(PID.TID 0000.0001) %MON forcing_fu_del2              =   1.0987978732367E-04
(PID.TID 0000.0001) %MON forcing_fv_max               =   1.1408742058945E+00
(PID.TID 0000.0001) %MON forcing_fv_min               =  -1.0548440641514E+00
(PID.TID 0000.0001) %MON forcing_fv_mean              =   1.4329014891770E-03
(PID.TID 0000.0001) %MON forcing_fv_sd                =   1.1638898188308E-01
(PID.TID 0000.0001) %MON forcing_fv_del2              =   1.0177334012537E-04
(PID.TID 0000.0001) %MON trAdv_CFL_u_max              =   7.0111045783303E-02
(PID.TID 0000.0001) %MON trAdv_CFL_v_max              =   5.5299604349847E-02
(PID.TID 0000.0001) %MON trAdv_CFL_w_max              =   2.2287266112905E-01
(PID.TID 0000.0001) %MON advcfl_uvel_max              =   7.1275808764408E-02
(PID.TID 0000.0001) %MON advcfl_vvel_max              =   5.7362202347715E-02
(PID.TID 0000.0001) %MON advcfl_wvel_max              =   2.1334342181486E-01
(PID.TID 0000.0001) %MON advcfl_W_hf_max              =   2.2295389064985E-01
(PID.TID 0000.0001) %MON pe_b_mean                    =   4.3090794968253E-04
(PID.TID 0000.0001) %MON ke_max                       =   6.9466346476281E-01
(PID.TID 0000.0001) %MON ke_mean                      =   5.0718682821329E-04
(PID.TID 0000.0001) %MON ke_vol                       =   1.3349970746060E+18
(PID.TID 0000.0001) %MON vort_r_min                   =  -2.7406886815807E-05
(PID.TID 0000.0001) %MON vort_r_max                   =   2.5326053962101E-05
(PID.TID 0000.0001) %MON vort_a_mean                  =  -1.9727864647440E-05
(PID.TID 0000.0001) %MON vort_a_sd                    =   7.4543292555504E-05
(PID.TID 0000.0001) %MON vort_p_mean                  =  -2.1760539199001E-05
(PID.TID 0000.0001) %MON vort_p_sd                    =   9.7242423533687E-05
(PID.TID 0000.0001) %MON surfExpan_theta_mean         =   1.3393559223925E-07
(PID.TID 0000.0001) %MON surfExpan_salt_mean          =   2.2950470596887E-08
(PID.TID 0000.0001) // =======================================================
(PID.TID 0000.0001) // End MONITOR dynamic field statistics
(PID.TID 0000.0001) // =======================================================
(PID.TID 0000.0001) // =======================================================
(PID.TID 0000.0001) // Begin MONITOR SEAICE statistics
(PID.TID 0000.0001) // =======================================================
(PID.TID 0000.0001) %MON seaice_tsnumber              =                    36
(PID.TID 0000.0001) %MON seaice_time_sec              =   1.2960000000000E+05
(PID.TID 0000.0001) %MON seaice_uice_max              =   4.0000000000000E-01
(PID.TID 0000.0001) %MON seaice_uice_min              =  -4.0000000000000E-01
(PID.TID 0000.0001) %MON seaice_uice_mean             =   5.4413845800493E-03
(PID.TID 0000.0001) %MON seaice_uice_sd               =   1.8939257164523E-01
(PID.TID 0000.0001) %MON seaice_uice_del2             =   1.9015380786405E-04
(PID.TID 0000.0001) %MON seaice_vice_max              =   4.0000000000000E-01
(PID.TID 0000.0001) %MON seaice_vice_min              =  -4.0000000000000E-01
(PID.TID 0000.0001) %MON seaice_vice_mean             =  -8.7155634935537E-03
(PID.TID 0000.0001) %MON seaice_vice_sd               =   2.0451659581616E-01
(PID.TID 0000.0001) %MON seaice_vice_del2             =   2.0901326428023E-04
(PID.TID 0000.0001) %MON seaice_area_max              =   9.5000000000000E-01
(PID.TID 0000.0001) %MON seaice_area_min              =   0.0000000000000E+00
(PID.TID 0000.0001) %MON seaice_area_mean             =   3.8759221340237E-02
(PID.TID 0000.0001) %MON seaice_area_sd               =   1.7830103306397E-01
(PID.TID 0000.0001) %MON seaice_area_del2             =   2.6546923853595E-04
(PID.TID 0000.0001) %MON seaice_heff_max              =   4.4032445416465E+00
(PID.TID 0000.0001) %MON seaice_heff_min              =   0.0000000000000E+00
(PID.TID 0000.0001) %MON seaice_heff_mean             =   5.3552624349775E-02
(PID.TID 0000.0001) %MON seaice_heff_sd               =   3.0669749505681E-01
(PID.TID 0000.0001) %MON seaice_heff_del2             =   3.0455646698217E-04
(PID.TID 0000.0001) %MON seaice_hsnow_max             =   9.7013248857568E-01
(PID.TID 0000.0001) %MON seaice_hsnow_min             =  -1.9625032337486E-05
(PID.TID 0000.0001) %MON seaice_hsnow_mean            =   5.2285702646450E-03
(PID.TID 0000.0001) %MON seaice_hsnow_sd              =   3.1424269642778E-02
(PID.TID 0000.0001) %MON seaice_hsnow_del2            =   5.3151545295795E-05
(PID.TID 0000.0001) // =======================================================
(PID.TID 0000.0001) // End MONITOR SEAICE statistics
(PID.TID 0000.0001) // =======================================================
(PID.TID 0000.0001) // =======================================================
(PID.TID 0000.0001) // Begin MONITOR EXF statistics
(PID.TID 0000.0001) // =======================================================
(PID.TID 0000.0001) %MON exf_tsnumber                 =                    36
(PID.TID 0000.0001) %MON exf_time_sec                 =   1.2960000000000E+05
(PID.TID 0000.0001) %MON exf_ustress_max              =   1.5135071363191E+00
(PID.TID 0000.0001) %MON exf_ustress_min              =  -2.1301172977188E+00
(PID.TID 0000.0001) %MON exf_ustress_mean             =   1.3419317432676E-02
(PID.TID 0000.0001) %MON exf_ustress_sd               =   1.0693068343052E-01
(PID.TID 0000.0001) %MON exf_ustress_del2             =   1.0426102967263E-04
(PID.TID 0000.0001) %MON exf_vstress_max              =   9.7759962081909E-01
(PID.TID 0000.0001) %MON exf_vstress_min              =  -7.2656926512718E-01
(PID.TID 0000.0001) %MON exf_vstress_mean             =   5.4406005717529E-04
(PID.TID 0000.0001) %MON exf_vstress_sd               =   1.0950592197628E-01
(PID.TID 0000.0001) %MON exf_vstress_del2             =   8.8462736733554E-05
(PID.TID 0000.0001) %MON exf_hflux_max                =   1.2702486622980E+03
(PID.TID 0000.0001) %MON exf_hflux_min                =  -5.9345087428185E+02
(PID.TID 0000.0001) %MON exf_hflux_mean               =  -5.0053230457668E+00
(PID.TID 0000.0001) %MON exf_hflux_sd                 =   2.2874597553820E+02
(PID.TID 0000.0001) %MON exf_hflux_del2               =   4.1736649786736E-01
(PID.TID 0000.0001) %MON exf_sflux_max                =   2.4844728483861E-07
(PID.TID 0000.0001) %MON exf_sflux_min                =  -3.5443081451723E-06
(PID.TID 0000.0001) %MON exf_sflux_mean               =   6.1955994100455E-09
(PID.TID 0000.0001) %MON exf_sflux_sd                 =   8.7834523201603E-08
(PID.TID 0000.0001) %MON exf_sflux_del2               =   2.4343228248173E-10
(PID.TID 0000.0001) %MON exf_wspeed_max               =   2.1546093940735E+01
(PID.TID 0000.0001) %MON exf_wspeed_min               =   3.3896500617266E-01
(PID.TID 0000.0001) %MON exf_wspeed_mean              =   6.8866000415238E+00
(PID.TID 0000.0001) %MON exf_wspeed_sd                =   3.0788464062642E+00
(PID.TID 0000.0001) %MON exf_wspeed_del2              =   1.1787240849914E-02
(PID.TID 0000.0001) %MON exf_atemp_max                =   3.0312633457184E+02
(PID.TID 0000.0001) %MON exf_atemp_min                =   2.2776617279053E+02
(PID.TID 0000.0001) %MON exf_atemp_mean               =   2.8911046993411E+02
(PID.TID 0000.0001) %MON exf_atemp_sd                 =   1.2331593998171E+01
(PID.TID 0000.0001) %MON exf_atemp_del2               =   2.6514518323251E-02
(PID.TID 0000.0001) %MON exf_aqh_max                  =   2.2269669920206E-02
(PID.TID 0000.0001) %MON exf_aqh_min                  =   7.2705883212620E-05
(PID.TID 0000.0001) %MON exf_aqh_mean                 =   1.0834404287062E-02
(PID.TID 0000.0001) %MON exf_aqh_sd                   =   5.5912448228597E-03
(PID.TID 0000.0001) %MON exf_aqh_del2                 =   1.4504793319528E-05
(PID.TID 0000.0001) %MON exf_lwflux_max               =   2.2105497308224E+02
(PID.TID 0000.0001) %MON exf_lwflux_min               =  -2.0721069707722E+01
(PID.TID 0000.0001) %MON exf_lwflux_mean              =   4.9283034494013E+01
(PID.TID 0000.0001) %MON exf_lwflux_sd                =   2.8989879315752E+01
(PID.TID 0000.0001) %MON exf_lwflux_del2              =   1.0174242330660E-01
(PID.TID 0000.0001) %MON exf_evap_max                 =   2.5579783050149E-07
(PID.TID 0000.0001) %MON exf_evap_min                 =  -2.2160050393166E-08
(PID.TID 0000.0001) %MON exf_evap_mean                =   4.5834470283253E-08
(PID.TID 0000.0001) %MON exf_evap_sd                  =   2.9073287479081E-08
(PID.TID 0000.0001) %MON exf_evap_del2                =   7.2519729610803E-11
(PID.TID 0000.0001) %MON exf_precip_max               =   3.5726885698750E-06
(PID.TID 0000.0001) %MON exf_precip_min               =  -1.5293947441819E-08
(PID.TID 0000.0001) %MON exf_precip_mean              =   3.6608194168607E-08
(PID.TID 0000.0001) %MON exf_precip_sd                =   7.8316772511385E-08
(PID.TID 0000.0001) %MON exf_precip_del2              =   2.3928543253747E-10
(PID.TID 0000.0001) %MON exf_swflux_max               =   2.5388289959924E+01
(PID.TID 0000.0001) %MON exf_swflux_min               =  -7.1386453629672E+02
(PID.TID 0000.0001) %MON exf_swflux_mean              =  -1.9883307102485E+02
(PID.TID 0000.0001) %MON exf_swflux_sd                =   1.7227606123834E+02
(PID.TID 0000.0001) %MON exf_swflux_del2              =   3.6556799607172E-01
(PID.TID 0000.0001) %MON exf_swdown_max               =   7.7064578247070E+02
(PID.TID 0000.0001) %MON exf_swdown_min               =  -3.4024530410767E+01
(PID.TID 0000.0001) %MON exf_swdown_mean              =   2.1560354783567E+02
(PID.TID 0000.0001) %MON exf_swdown_sd                =   1.8604931827163E+02
(PID.TID 0000.0001) %MON exf_swdown_del2              =   3.9668522506658E-01
(PID.TID 0000.0001) %MON exf_lwdown_max               =   4.6333659362793E+02
(PID.TID 0000.0001) %MON exf_lwdown_min               =   7.8782218933105E+01
(PID.TID 0000.0001) %MON exf_lwdown_mean              =   3.6243528855944E+02
(PID.TID 0000.0001) %MON exf_lwdown_sd                =   6.5719252032993E+01
(PID.TID 0000.0001) %MON exf_lwdown_del2              =   4.8401487337871E-01
(PID.TID 0000.0001) %MON exf_runoff_max               =   2.0780846148961E-06
(PID.TID 0000.0001) %MON exf_runoff_min               =   0.0000000000000E+00
(PID.TID 0000.0001) %MON exf_runoff_mean              =   3.0306767046000E-09
(PID.TID 0000.0001) %MON exf_runoff_sd                =   2.4346560746277E-08
(PID.TID 0000.0001) %MON exf_runoff_del2              =   1.8261999871997E-11
(PID.TID 0000.0001) // =======================================================
(PID.TID 0000.0001) // End MONITOR EXF statistics
(PID.TID 0000.0001) // =======================================================
 SEAICE_LSR: Residual Initial ipass,Uice,Vice=    1  1.41787314E-01  1.55988709E-01
 SEAICE_LSR: Residual FrDrift U_fd,V_fd=  6.54341683E+01  8.50436959E+01
 SEAICE_LSR (ipass=   1) iters,dU,Resid=   406  1.98790448E-04  2.03238814E-03
 SEAICE_LSR (ipass=   1) iters,dV,Resid=   406  1.36618104E-05  7.27825855E-04
 SEAICE_LSR: Residual Initial ipass,Uice,Vice=    2  3.56410727E-01  4.03826896E-01
 SEAICE_LSR: Residual FrDrift U_fd,V_fd=  6.08932284E+01  8.16327628E+01
 SEAICE_LSR (ipass=   2) iters,dU,Resid=    76  1.87490066E-04  1.04355462E-03
 SEAICE_LSR (ipass=   2) iters,dV,Resid=    76  5.71526517E-05  1.13905976E-03
 cg2d: Sum(rhs),rhsMax =   4.49690361189180E+00  3.50572419553861E-01
 cg2d: Sum(rhs),rhsMax =   4.53558276413929E+00  3.54679965261688E-01
(PID.TID 0000.0001)      cg2d_init_res =   2.76685646849271E-01
(PID.TID 0000.0001)      cg2d_iters(min,last) =      -1      91
(PID.TID 0000.0001)      cg2d_last_res =   6.77330178044420E-06
(PID.TID 0000.0001) // =======================================================
(PID.TID 0000.0001) // Begin MONITOR dynamic field statistics
(PID.TID 0000.0001) // =======================================================
(PID.TID 0000.0001) %MON time_tsnumber                =                    38
(PID.TID 0000.0001) %MON time_secondsf                =   1.3680000000000E+05
(PID.TID 0000.0001) %MON dynstat_eta_max              =   1.2902327409015E+00
(PID.TID 0000.0001) %MON dynstat_eta_min              =  -4.2661439880947E+00
(PID.TID 0000.0001) %MON dynstat_eta_mean             =  -2.2955994963191E-03
(PID.TID 0000.0001) %MON dynstat_eta_sd               =   7.4241541870587E-01
(PID.TID 0000.0001) %MON dynstat_eta_del2             =   2.8988391966202E-04
(PID.TID 0000.0001) %MON dynstat_uvel_max             =   1.0858536724549E+00
(PID.TID 0000.0001) %MON dynstat_uvel_min             =  -7.1975605909375E-01
(PID.TID 0000.0001) %MON dynstat_uvel_mean            =   1.3894174554739E-03
(PID.TID 0000.0001) %MON dynstat_uvel_sd              =   2.1719365401929E-02
(PID.TID 0000.0001) %MON dynstat_uvel_del2            =   1.3698291498262E-05
(PID.TID 0000.0001) %MON dynstat_vvel_max             =   1.1769654760925E+00
(PID.TID 0000.0001) %MON dynstat_vvel_min             =  -9.3518753317040E-01
(PID.TID 0000.0001) %MON dynstat_vvel_mean            =   1.2194168547962E-03
(PID.TID 0000.0001) %MON dynstat_vvel_sd              =   2.4019315907846E-02
(PID.TID 0000.0001) %MON dynstat_vvel_del2            =   1.4238115282719E-05
(PID.TID 0000.0001) %MON dynstat_wvel_max             =   7.9318550932400E-04
(PID.TID 0000.0001) %MON dynstat_wvel_min             =  -1.6687606065216E-03
(PID.TID 0000.0001) %MON dynstat_wvel_mean            =  -8.4517304270861E-10
(PID.TID 0000.0001) %MON dynstat_wvel_sd              =   2.7618552458279E-05
(PID.TID 0000.0001) %MON dynstat_wvel_del2            =   2.8165993789162E-08
(PID.TID 0000.0001) %MON dynstat_theta_max            =   3.2606821510366E+01
(PID.TID 0000.0001) %MON dynstat_theta_min            =  -2.0421713643571E+00
(PID.TID 0000.0001) %MON dynstat_theta_mean           =   3.5906798849985E+00
(PID.TID 0000.0001) %MON dynstat_theta_sd             =   4.4365462102029E+00
(PID.TID 0000.0001) %MON dynstat_theta_del2           =   1.0559252640322E-04
(PID.TID 0000.0001) %MON dynstat_salt_max             =   4.0711452082079E+01
(PID.TID 0000.0001) %MON dynstat_salt_min             =   1.7510292866586E+01
(PID.TID 0000.0001) %MON dynstat_salt_mean            =   3.4725695779572E+01
(PID.TID 0000.0001) %MON dynstat_salt_sd              =   3.7885957368466E-01
(PID.TID 0000.0001) %MON dynstat_salt_del2            =   2.5687035643684E-05
(PID.TID 0000.0001) %MON dynstat_sst_max              =   3.2606821510366E+01
(PID.TID 0000.0001) %MON dynstat_sst_min              =  -1.9610318531662E+00
(PID.TID 0000.0001) %MON dynstat_sst_mean             =   1.8522404189607E+01
(PID.TID 0000.0001) %MON dynstat_sst_sd               =   1.0070501711158E+01
(PID.TID 0000.0001) %MON dynstat_sst_del2             =   8.7978449013289E-04
(PID.TID 0000.0001) %MON dynstat_sss_max              =   3.9713842857568E+01
(PID.TID 0000.0001) %MON dynstat_sss_min              =   1.7510292866586E+01
(PID.TID 0000.0001) %MON dynstat_sss_mean             =   3.4722201993994E+01
(PID.TID 0000.0001) %MON dynstat_sss_sd               =   1.2182369019930E+00
(PID.TID 0000.0001) %MON dynstat_sss_del2             =   3.8935443230768E-04
(PID.TID 0000.0001) %MON forcing_qnet_max             =   1.0803480547288E+03
(PID.TID 0000.0001) %MON forcing_qnet_min             =  -8.0287776781809E+02
(PID.TID 0000.0001) %MON forcing_qnet_mean            =  -1.7050705106766E+01
(PID.TID 0000.0001) %MON forcing_qnet_sd              =   2.0590049405026E+02
(PID.TID 0000.0001) %MON forcing_qnet_del2            =   1.6169632265201E-01
(PID.TID 0000.0001) %MON forcing_qsw_max              =   2.5403001794753E+01
(PID.TID 0000.0001) %MON forcing_qsw_min              =  -7.3921520299596E+02
(PID.TID 0000.0001) %MON forcing_qsw_mean             =  -1.9485982030217E+02
(PID.TID 0000.0001) %MON forcing_qsw_sd               =   1.7747536896500E+02
(PID.TID 0000.0001) %MON forcing_qsw_del2             =   8.0407961180972E-02
(PID.TID 0000.0001) %MON forcing_empmr_max            =   1.7434764047424E-03
(PID.TID 0000.0001) %MON forcing_empmr_min            =  -4.0515698401804E-03
(PID.TID 0000.0001) %MON forcing_empmr_mean           =   5.5956796757434E-06
(PID.TID 0000.0001) %MON forcing_empmr_sd             =   1.0555314425156E-04
(PID.TID 0000.0001) %MON forcing_empmr_del2           =   4.8599680592722E-07
(PID.TID 0000.0001) %MON forcing_fu_max               =   1.1268183348651E+00
(PID.TID 0000.0001) %MON forcing_fu_min               =  -2.0344366369806E+00
(PID.TID 0000.0001) %MON forcing_fu_mean              =   1.2451488791415E-02
(PID.TID 0000.0001) %MON forcing_fu_sd                =   1.1341115696336E-01
(PID.TID 0000.0001) %MON forcing_fu_del2              =   1.0687529028132E-04
(PID.TID 0000.0001) %MON forcing_fv_max               =   1.2192435571594E+00
(PID.TID 0000.0001) %MON forcing_fv_min               =  -1.0884704178450E+00
(PID.TID 0000.0001) %MON forcing_fv_mean              =   1.5333193204582E-03
(PID.TID 0000.0001) %MON forcing_fv_sd                =   1.1543684775086E-01
(PID.TID 0000.0001) %MON forcing_fv_del2              =   1.0060629669902E-04
(PID.TID 0000.0001) %MON trAdv_CFL_u_max              =   6.8194633426534E-02
(PID.TID 0000.0001) %MON trAdv_CFL_v_max              =   5.6511383029652E-02
(PID.TID 0000.0001) %MON trAdv_CFL_w_max              =   2.2731106433302E-01
(PID.TID 0000.0001) %MON advcfl_uvel_max              =   6.5355437251294E-02
(PID.TID 0000.0001) %MON advcfl_vvel_max              =   5.8600995846625E-02
(PID.TID 0000.0001) %MON advcfl_wvel_max              =   2.1984044477291E-01
(PID.TID 0000.0001) %MON advcfl_W_hf_max              =   2.2919095854124E-01
(PID.TID 0000.0001) %MON pe_b_mean                    =   4.3025859272228E-04
(PID.TID 0000.0001) %MON ke_max                       =   7.0186806872439E-01
(PID.TID 0000.0001) %MON ke_mean                      =   5.0730894641737E-04
(PID.TID 0000.0001) %MON ke_vol                       =   1.3349970620916E+18
(PID.TID 0000.0001) %MON vort_r_min                   =  -2.5329422893464E-05
(PID.TID 0000.0001) %MON vort_r_max                   =   2.5293559402311E-05
(PID.TID 0000.0001) %MON vort_a_mean                  =  -1.9727864647440E-05
(PID.TID 0000.0001) %MON vort_a_sd                    =   7.4543292206825E-05
(PID.TID 0000.0001) %MON vort_p_mean                  =  -2.1760539348569E-05
(PID.TID 0000.0001) %MON vort_p_sd                    =   9.7242515092597E-05
(PID.TID 0000.0001) %MON surfExpan_theta_mean         =   1.0952124118911E-07
(PID.TID 0000.0001) %MON surfExpan_salt_mean          =   2.6609742796579E-08
(PID.TID 0000.0001) // =======================================================
(PID.TID 0000.0001) // End MONITOR dynamic field statistics
(PID.TID 0000.0001) // =======================================================
(PID.TID 0000.0001) // =======================================================
(PID.TID 0000.0001) // Begin MONITOR SEAICE statistics
(PID.TID 0000.0001) // =======================================================
(PID.TID 0000.0001) %MON seaice_tsnumber              =                    38
(PID.TID 0000.0001) %MON seaice_time_sec              =   1.3680000000000E+05
(PID.TID 0000.0001) %MON seaice_uice_max              =   4.0000000000000E-01
(PID.TID 0000.0001) %MON seaice_uice_min              =  -4.0000000000000E-01
(PID.TID 0000.0001) %MON seaice_uice_mean             =   5.2101853951110E-03
(PID.TID 0000.0001) %MON seaice_uice_sd               =   1.9152483328752E-01
(PID.TID 0000.0001) %MON seaice_uice_del2             =   1.8947827748717E-04
(PID.TID 0000.0001) %MON seaice_vice_max              =   4.0000000000000E-01
(PID.TID 0000.0001) %MON seaice_vice_min              =  -4.0000000000000E-01
(PID.TID 0000.0001) %MON seaice_vice_mean             =  -8.1488473278064E-03
(PID.TID 0000.0001) %MON seaice_vice_sd               =   2.0291493283273E-01
(PID.TID 0000.0001) %MON seaice_vice_del2             =   2.0590508561941E-04
(PID.TID 0000.0001) %MON seaice_area_max              =   9.5000000000000E-01
(PID.TID 0000.0001) %MON seaice_area_min              =   0.0000000000000E+00
(PID.TID 0000.0001) %MON seaice_area_mean             =   3.8701390480747E-02
(PID.TID 0000.0001) %MON seaice_area_sd               =   1.7818978084491E-01
(PID.TID 0000.0001) %MON seaice_area_del2             =   2.6687586951335E-04
(PID.TID 0000.0001) %MON seaice_heff_max              =   4.3029793260133E+00
(PID.TID 0000.0001) %MON seaice_heff_min              =   0.0000000000000E+00
(PID.TID 0000.0001) %MON seaice_heff_mean             =   5.3555865575339E-02
(PID.TID 0000.0001) %MON seaice_heff_sd               =   3.0684317333269E-01
(PID.TID 0000.0001) %MON seaice_heff_del2             =   3.0289704080568E-04
(PID.TID 0000.0001) %MON seaice_hsnow_max             =   9.6944293272210E-01
(PID.TID 0000.0001) %MON seaice_hsnow_min             =  -2.6254126892702E-05
(PID.TID 0000.0001) %MON seaice_hsnow_mean            =   5.2255471617047E-03
(PID.TID 0000.0001) %MON seaice_hsnow_sd              =   3.1417327483753E-02
(PID.TID 0000.0001) %MON seaice_hsnow_del2            =   5.3191712142602E-05
(PID.TID 0000.0001) // =======================================================
(PID.TID 0000.0001) // End MONITOR SEAICE statistics
(PID.TID 0000.0001) // =======================================================
(PID.TID 0000.0001) // =======================================================
(PID.TID 0000.0001) // Begin MONITOR EXF statistics
(PID.TID 0000.0001) // =======================================================
(PID.TID 0000.0001) %MON exf_tsnumber                 =                    38
(PID.TID 0000.0001) %MON exf_time_sec                 =   1.3680000000000E+05
(PID.TID 0000.0001) %MON exf_ustress_max              =   1.6108395638059E+00
(PID.TID 0000.0001) %MON exf_ustress_min              =  -2.0328559448235E+00
(PID.TID 0000.0001) %MON exf_ustress_mean             =   1.3013226931319E-02
(PID.TID 0000.0001) %MON exf_ustress_sd               =   1.0849833810387E-01
(PID.TID 0000.0001) %MON exf_ustress_del2             =   1.0963552912569E-04
(PID.TID 0000.0001) %MON exf_vstress_max              =   1.0173029899597E+00
(PID.TID 0000.0001) %MON exf_vstress_min              =  -7.1082018812497E-01
(PID.TID 0000.0001) %MON exf_vstress_mean             =   6.3984279969830E-04
(PID.TID 0000.0001) %MON exf_vstress_sd               =   1.1005685320696E-01
(PID.TID 0000.0001) %MON exf_vstress_del2             =   9.5338365058563E-05
(PID.TID 0000.0001) %MON exf_hflux_max                =   1.2756491104226E+03
(PID.TID 0000.0001) %MON exf_hflux_min                =  -6.8531091895299E+02
(PID.TID 0000.0001) %MON exf_hflux_mean               =  -2.9991694079019E-01
(PID.TID 0000.0001) %MON exf_hflux_sd                 =   2.4661210103708E+02
(PID.TID 0000.0001) %MON exf_hflux_del2               =   4.3769408112465E-01
(PID.TID 0000.0001) %MON exf_sflux_max                =   2.5987084384323E-07
(PID.TID 0000.0001) %MON exf_sflux_min                =  -4.5925155129791E-06
(PID.TID 0000.0001) %MON exf_sflux_mean               =   6.9968338936971E-09
(PID.TID 0000.0001) %MON exf_sflux_sd                 =   9.2543763576749E-08
(PID.TID 0000.0001) %MON exf_sflux_del2               =   2.7804564019126E-10
(PID.TID 0000.0001) %MON exf_wspeed_max               =   2.2465797901154E+01
(PID.TID 0000.0001) %MON exf_wspeed_min               =   2.7703578521808E-01
(PID.TID 0000.0001) %MON exf_wspeed_mean              =   6.8962720590724E+00
(PID.TID 0000.0001) %MON exf_wspeed_sd                =   3.1209512802501E+00
(PID.TID 0000.0001) %MON exf_wspeed_del2              =   1.1953606292611E-02
(PID.TID 0000.0001) %MON exf_atemp_max                =   3.0343549226125E+02
(PID.TID 0000.0001) %MON exf_atemp_min                =   2.2711463521322E+02
(PID.TID 0000.0001) %MON exf_atemp_mean               =   2.8912398879812E+02
(PID.TID 0000.0001) %MON exf_atemp_sd                 =   1.2349311768057E+01
(PID.TID 0000.0001) %MON exf_atemp_del2               =   2.6547897807674E-02
(PID.TID 0000.0001) %MON exf_aqh_max                  =   2.2286914909879E-02
(PID.TID 0000.0001) %MON exf_aqh_min                  =   6.9897899569090E-05
(PID.TID 0000.0001) %MON exf_aqh_mean                 =   1.0851978395620E-02
(PID.TID 0000.0001) %MON exf_aqh_sd                   =   5.6073939510429E-03
(PID.TID 0000.0001) %MON exf_aqh_del2                 =   1.4554454961635E-05
(PID.TID 0000.0001) %MON exf_lwflux_max               =   2.2193152391146E+02
(PID.TID 0000.0001) %MON exf_lwflux_min               =  -2.1430604702914E+01
(PID.TID 0000.0001) %MON exf_lwflux_mean              =   4.9447422124826E+01
(PID.TID 0000.0001) %MON exf_lwflux_sd                =   2.9328876996401E+01
(PID.TID 0000.0001) %MON exf_lwflux_del2              =   1.0261929165600E-01
(PID.TID 0000.0001) %MON exf_evap_max                 =   2.6662093072435E-07
(PID.TID 0000.0001) %MON exf_evap_min                 =  -3.2745727421221E-08
(PID.TID 0000.0001) %MON exf_evap_mean                =   4.5805081415224E-08
(PID.TID 0000.0001) %MON exf_evap_sd                  =   2.9350175975737E-08
(PID.TID 0000.0001) %MON exf_evap_del2                =   7.3253190985307E-11
(PID.TID 0000.0001) %MON exf_precip_max               =   4.6132927498851E-06
(PID.TID 0000.0001) %MON exf_precip_min               =  -1.5334178371518E-08
(PID.TID 0000.0001) %MON exf_precip_mean              =   3.5778475242553E-08
(PID.TID 0000.0001) %MON exf_precip_sd                =   8.3642670982155E-08
(PID.TID 0000.0001) %MON exf_precip_del2              =   2.7408534635754E-10
(PID.TID 0000.0001) %MON exf_swflux_max               =   2.8509073504943E+01
(PID.TID 0000.0001) %MON exf_swflux_min               =  -7.8610259804923E+02
(PID.TID 0000.0001) %MON exf_swflux_mean              =  -1.9412275237273E+02
(PID.TID 0000.0001) %MON exf_swflux_sd                =   1.9957957973452E+02
(PID.TID 0000.0001) %MON exf_swflux_del2              =   3.8540229371403E-01
(PID.TID 0000.0001) %MON exf_swdown_max               =   8.4863024648031E+02
(PID.TID 0000.0001) %MON exf_swdown_min               =  -3.4063866297404E+01
(PID.TID 0000.0001) %MON exf_swdown_mean              =   2.1047319270979E+02
(PID.TID 0000.0001) %MON exf_swdown_sd                =   2.1572239425364E+02
(PID.TID 0000.0001) %MON exf_swdown_del2              =   4.1790129387449E-01
(PID.TID 0000.0001) %MON exf_lwdown_max               =   4.6489831034342E+02
(PID.TID 0000.0001) %MON exf_lwdown_min               =   7.7878532409668E+01
(PID.TID 0000.0001) %MON exf_lwdown_mean              =   3.6227148120945E+02
(PID.TID 0000.0001) %MON exf_lwdown_sd                =   6.5929554556020E+01
(PID.TID 0000.0001) %MON exf_lwdown_del2              =   4.8356254954096E-01
(PID.TID 0000.0001) %MON exf_runoff_max               =   2.0812387736940E-06
(PID.TID 0000.0001) %MON exf_runoff_min               =   0.0000000000000E+00
(PID.TID 0000.0001) %MON exf_runoff_mean              =   3.0297722789738E-09
(PID.TID 0000.0001) %MON exf_runoff_sd                =   2.4376061013735E-08
(PID.TID 0000.0001) %MON exf_runoff_del2              =   1.8272729872493E-11
(PID.TID 0000.0001) // =======================================================
(PID.TID 0000.0001) // End MONITOR EXF statistics
(PID.TID 0000.0001) // =======================================================
 SEAICE_LSR: Residual Initial ipass,Uice,Vice=    1  1.39731472E-01  1.57741542E-01
 SEAICE_LSR: Residual FrDrift U_fd,V_fd=  6.87439499E+01  8.27039451E+01
 SEAICE_LSR (ipass=   1) iters,dU,Resid=   354  1.99289373E-04  2.00583627E-03
 SEAICE_LSR (ipass=   1) iters,dV,Resid=   354  9.92110957E-06  9.19620578E-04
 SEAICE_LSR: Residual Initial ipass,Uice,Vice=    2  4.49025182E-01  4.73121513E-01
 SEAICE_LSR: Residual FrDrift U_fd,V_fd=  6.54906034E+01  8.01667097E+01
 SEAICE_LSR (ipass=   2) iters,dU,Resid=    74  1.93942317E-04  1.19302027E-03
 SEAICE_LSR (ipass=   2) iters,dV,Resid=    74  6.50926083E-05  1.14407498E-03
 cg2d: Sum(rhs),rhsMax =   4.57761184760521E+00  3.57904495449187E-01
 cg2d: Sum(rhs),rhsMax =   4.62314582306970E+00  3.60476179592243E-01
(PID.TID 0000.0001)      cg2d_init_res =   2.70564177076858E-01
(PID.TID 0000.0001)      cg2d_iters(min,last) =      -1      92
(PID.TID 0000.0001)      cg2d_last_res =   6.93274353528448E-06
(PID.TID 0000.0001) // =======================================================
(PID.TID 0000.0001) // Begin MONITOR dynamic field statistics
(PID.TID 0000.0001) // =======================================================
(PID.TID 0000.0001) %MON time_tsnumber                =                    40
(PID.TID 0000.0001) %MON time_secondsf                =   1.4400000000000E+05
(PID.TID 0000.0001) %MON dynstat_eta_max              =   1.3802193345000E+00
(PID.TID 0000.0001) %MON dynstat_eta_min              =  -4.1914080211439E+00
(PID.TID 0000.0001) %MON dynstat_eta_mean             =  -2.3399178837084E-03
(PID.TID 0000.0001) %MON dynstat_eta_sd               =   7.4224402134328E-01
(PID.TID 0000.0001) %MON dynstat_eta_del2             =   2.8860296474137E-04
(PID.TID 0000.0001) %MON dynstat_uvel_max             =   1.0965514637808E+00
(PID.TID 0000.0001) %MON dynstat_uvel_min             =  -7.2345263774512E-01
(PID.TID 0000.0001) %MON dynstat_uvel_mean            =   1.4000953807356E-03
(PID.TID 0000.0001) %MON dynstat_uvel_sd              =   2.1679154402188E-02
(PID.TID 0000.0001) %MON dynstat_uvel_del2            =   1.3642105108221E-05
(PID.TID 0000.0001) %MON dynstat_vvel_max             =   1.1821318246735E+00
(PID.TID 0000.0001) %MON dynstat_vvel_min             =  -9.3675954618149E-01
(PID.TID 0000.0001) %MON dynstat_vvel_mean            =   1.2186150872659E-03
(PID.TID 0000.0001) %MON dynstat_vvel_sd              =   2.4048723034543E-02
(PID.TID 0000.0001) %MON dynstat_vvel_del2            =   1.4170527481948E-05
(PID.TID 0000.0001) %MON dynstat_wvel_max             =   7.3140577442662E-04
(PID.TID 0000.0001) %MON dynstat_wvel_min             =  -1.7044881368900E-03
(PID.TID 0000.0001) %MON dynstat_wvel_mean            =  -1.8580021806222E-09
(PID.TID 0000.0001) %MON dynstat_wvel_sd              =   2.7574641093410E-05
(PID.TID 0000.0001) %MON dynstat_wvel_del2            =   2.8004497269317E-08
(PID.TID 0000.0001) %MON dynstat_theta_max            =   3.2667940867314E+01
(PID.TID 0000.0001) %MON dynstat_theta_min            =  -2.0421270170939E+00
(PID.TID 0000.0001) %MON dynstat_theta_mean           =   3.5906861272930E+00
(PID.TID 0000.0001) %MON dynstat_theta_sd             =   4.4365657784055E+00
(PID.TID 0000.0001) %MON dynstat_theta_del2           =   1.0554674495963E-04
(PID.TID 0000.0001) %MON dynstat_salt_max             =   4.0711446870093E+01
(PID.TID 0000.0001) %MON dynstat_salt_min             =   1.7513777521904E+01
(PID.TID 0000.0001) %MON dynstat_salt_mean            =   3.4725696184296E+01
(PID.TID 0000.0001) %MON dynstat_salt_sd              =   3.7885850841478E-01
(PID.TID 0000.0001) %MON dynstat_salt_del2            =   2.5657005717079E-05
(PID.TID 0000.0001) %MON dynstat_sst_max              =   3.2667940867314E+01
(PID.TID 0000.0001) %MON dynstat_sst_min              =  -1.9610131085496E+00
(PID.TID 0000.0001) %MON dynstat_sst_mean             =   1.8523131355345E+01
(PID.TID 0000.0001) %MON dynstat_sst_sd               =   1.0070754240475E+01
(PID.TID 0000.0001) %MON dynstat_sst_del2             =   8.7868013441596E-04
(PID.TID 0000.0001) %MON dynstat_sss_max              =   3.9714671883878E+01
(PID.TID 0000.0001) %MON dynstat_sss_min              =   1.7513777521904E+01
(PID.TID 0000.0001) %MON dynstat_sss_mean             =   3.4722266383086E+01
(PID.TID 0000.0001) %MON dynstat_sss_sd               =   1.2182690388693E+00
(PID.TID 0000.0001) %MON dynstat_sss_del2             =   3.8912808547306E-04
(PID.TID 0000.0001) %MON forcing_qnet_max             =   1.0815522268577E+03
(PID.TID 0000.0001) %MON forcing_qnet_min             =  -9.7518123567050E+02
(PID.TID 0000.0001) %MON forcing_qnet_mean            =  -1.2484069176752E+01
(PID.TID 0000.0001) %MON forcing_qnet_sd              =   2.5166340850101E+02
(PID.TID 0000.0001) %MON forcing_qnet_del2            =   1.7236920035376E-01
(PID.TID 0000.0001) %MON forcing_qsw_max              =   3.6242464719938E+01
(PID.TID 0000.0001) %MON forcing_qsw_min              =  -9.0859498068752E+02
(PID.TID 0000.0001) %MON forcing_qsw_mean             =  -1.9021828914636E+02
(PID.TID 0000.0001) %MON forcing_qsw_sd               =   2.3199776295914E+02
(PID.TID 0000.0001) %MON forcing_qsw_del2             =   9.3381132099214E-02
(PID.TID 0000.0001) %MON forcing_empmr_max            =   1.7414888027517E-03
(PID.TID 0000.0001) %MON forcing_empmr_min            =  -5.1334810243707E-03
(PID.TID 0000.0001) %MON forcing_empmr_mean           =   6.5873610526301E-06
(PID.TID 0000.0001) %MON forcing_empmr_sd             =   1.1264274193992E-04
(PID.TID 0000.0001) %MON forcing_empmr_del2           =   5.1334659265889E-07
(PID.TID 0000.0001) %MON forcing_fu_max               =   1.2721962110959E+00
(PID.TID 0000.0001) %MON forcing_fu_min               =  -2.0162305820658E+00
(PID.TID 0000.0001) %MON forcing_fu_mean              =   1.2025121614453E-02
(PID.TID 0000.0001) %MON forcing_fu_sd                =   1.1613879587619E-01
(PID.TID 0000.0001) %MON forcing_fu_del2              =   1.1164687641925E-04
(PID.TID 0000.0001) %MON forcing_fv_max               =   1.2932363458260E+00
(PID.TID 0000.0001) %MON forcing_fv_min               =  -1.1064125212235E+00
(PID.TID 0000.0001) %MON forcing_fv_mean              =   1.6033912898493E-03
(PID.TID 0000.0001) %MON forcing_fv_sd                =   1.1764162043147E-01
(PID.TID 0000.0001) %MON forcing_fv_del2              =   1.0847761649264E-04
(PID.TID 0000.0001) %MON trAdv_CFL_u_max              =   6.8822774116550E-02
(PID.TID 0000.0001) %MON trAdv_CFL_v_max              =   5.4629491448520E-02
(PID.TID 0000.0001) %MON trAdv_CFL_w_max              =   2.2969615736021E-01
(PID.TID 0000.0001) %MON advcfl_uvel_max              =   6.5705495904571E-02
(PID.TID 0000.0001) %MON advcfl_vvel_max              =   5.6754780534053E-02
(PID.TID 0000.0001) %MON advcfl_wvel_max              =   2.2034703016415E-01
(PID.TID 0000.0001) %MON advcfl_W_hf_max              =   2.3014573624602E-01
(PID.TID 0000.0001) %MON pe_b_mean                    =   4.2962264468394E-04
(PID.TID 0000.0001) %MON ke_max                       =   7.0802861071988E-01
(PID.TID 0000.0001) %MON ke_mean                      =   5.0716276142819E-04
(PID.TID 0000.0001) %MON ke_vol                       =   1.3349970474671E+18
(PID.TID 0000.0001) %MON vort_r_min                   =  -2.3795186593861E-05
(PID.TID 0000.0001) %MON vort_r_max                   =   2.5377054622358E-05
(PID.TID 0000.0001) %MON vort_a_mean                  =  -1.9727864647440E-05
(PID.TID 0000.0001) %MON vort_a_sd                    =   7.4543292547426E-05
(PID.TID 0000.0001) %MON vort_p_mean                  =  -2.1760539510731E-05
(PID.TID 0000.0001) %MON vort_p_sd                    =   9.7242679187636E-05
(PID.TID 0000.0001) %MON surfExpan_theta_mean         =   9.0849361323265E-08
(PID.TID 0000.0001) %MON surfExpan_salt_mean          =   2.9923530354101E-08
(PID.TID 0000.0001) // =======================================================
(PID.TID 0000.0001) // End MONITOR dynamic field statistics
(PID.TID 0000.0001) // =======================================================
(PID.TID 0000.0001) // =======================================================
(PID.TID 0000.0001) // Begin MONITOR SEAICE statistics
(PID.TID 0000.0001) // =======================================================
(PID.TID 0000.0001) %MON seaice_tsnumber              =                    40
(PID.TID 0000.0001) %MON seaice_time_sec              =   1.4400000000000E+05
(PID.TID 0000.0001) %MON seaice_uice_max              =   4.0000000000000E-01
(PID.TID 0000.0001) %MON seaice_uice_min              =  -4.0000000000000E-01
(PID.TID 0000.0001) %MON seaice_uice_mean             =   4.8301935153394E-03
(PID.TID 0000.0001) %MON seaice_uice_sd               =   1.9397530297489E-01
(PID.TID 0000.0001) %MON seaice_uice_del2             =   1.9375524571244E-04
(PID.TID 0000.0001) %MON seaice_vice_max              =   4.0000000000000E-01
(PID.TID 0000.0001) %MON seaice_vice_min              =  -4.0000000000000E-01
(PID.TID 0000.0001) %MON seaice_vice_mean             =  -8.2281956883946E-03
(PID.TID 0000.0001) %MON seaice_vice_sd               =   2.0173218776866E-01
(PID.TID 0000.0001) %MON seaice_vice_del2             =   2.1150146471808E-04
(PID.TID 0000.0001) %MON seaice_area_max              =   9.5000000000000E-01
(PID.TID 0000.0001) %MON seaice_area_min              =   0.0000000000000E+00
(PID.TID 0000.0001) %MON seaice_area_mean             =   3.8661146982347E-02
(PID.TID 0000.0001) %MON seaice_area_sd               =   1.7810588378529E-01
(PID.TID 0000.0001) %MON seaice_area_del2             =   2.6524698027824E-04
(PID.TID 0000.0001) %MON seaice_heff_max              =   4.2015183900391E+00
(PID.TID 0000.0001) %MON seaice_heff_min              =   0.0000000000000E+00
(PID.TID 0000.0001) %MON seaice_heff_mean             =   5.3560603789927E-02
(PID.TID 0000.0001) %MON seaice_heff_sd               =   3.0698911907294E-01
(PID.TID 0000.0001) %MON seaice_heff_del2             =   3.0150250082042E-04
(PID.TID 0000.0001) %MON seaice_hsnow_max             =   9.6880672735210E-01
(PID.TID 0000.0001) %MON seaice_hsnow_min             =  -3.5310085158810E-05
(PID.TID 0000.0001) %MON seaice_hsnow_mean            =   5.2216738007458E-03
(PID.TID 0000.0001) %MON seaice_hsnow_sd              =   3.1409241043990E-02
(PID.TID 0000.0001) %MON seaice_hsnow_del2            =   5.3233152956970E-05
(PID.TID 0000.0001) // =======================================================
(PID.TID 0000.0001) // End MONITOR SEAICE statistics
(PID.TID 0000.0001) // =======================================================
(PID.TID 0000.0001) // =======================================================
(PID.TID 0000.0001) // Begin MONITOR EXF statistics
(PID.TID 0000.0001) // =======================================================
(PID.TID 0000.0001) %MON exf_tsnumber                 =                    40
(PID.TID 0000.0001) %MON exf_time_sec                 =   1.4400000000000E+05
(PID.TID 0000.0001) %MON exf_ustress_max              =   1.5979841925454E+00
(PID.TID 0000.0001) %MON exf_ustress_min              =  -1.9713340789380E+00
(PID.TID 0000.0001) %MON exf_ustress_mean             =   1.2896082773978E-02
(PID.TID 0000.0001) %MON exf_ustress_sd               =   1.0847990303722E-01
(PID.TID 0000.0001) %MON exf_ustress_del2             =   1.0914940282832E-04
(PID.TID 0000.0001) %MON exf_vstress_max              =   1.0330261389414E+00
(PID.TID 0000.0001) %MON exf_vstress_min              =  -7.1619476874669E-01
(PID.TID 0000.0001) %MON exf_vstress_mean             =   4.0921375413147E-04
(PID.TID 0000.0001) %MON exf_vstress_sd               =   1.0909949480243E-01
(PID.TID 0000.0001) %MON exf_vstress_del2             =   9.4629207176886E-05
(PID.TID 0000.0001) %MON exf_hflux_max                =   1.2500983689370E+03
(PID.TID 0000.0001) %MON exf_hflux_min                =  -6.8299348763380E+02
(PID.TID 0000.0001) %MON exf_hflux_mean               =   5.7447904288238E+00
(PID.TID 0000.0001) %MON exf_hflux_sd                 =   2.4784512916824E+02
(PID.TID 0000.0001) %MON exf_hflux_del2               =   4.4016594160244E-01
(PID.TID 0000.0001) %MON exf_sflux_max                =   2.5688178676545E-07
(PID.TID 0000.0001) %MON exf_sflux_min                =  -4.8850828396838E-06
(PID.TID 0000.0001) %MON exf_sflux_mean               =   6.9029915765479E-09
(PID.TID 0000.0001) %MON exf_sflux_sd                 =   9.4189326240832E-08
(PID.TID 0000.0001) %MON exf_sflux_del2               =   2.8445369059275E-10
(PID.TID 0000.0001) %MON exf_wspeed_max               =   2.3416578292847E+01
(PID.TID 0000.0001) %MON exf_wspeed_min               =   2.3317881176869E-01
(PID.TID 0000.0001) %MON exf_wspeed_mean              =   6.8993891022755E+00
(PID.TID 0000.0001) %MON exf_wspeed_sd                =   3.1137010748416E+00
(PID.TID 0000.0001) %MON exf_wspeed_del2              =   1.1976176997918E-02
(PID.TID 0000.0001) %MON exf_atemp_max                =   3.0356415659587E+02
(PID.TID 0000.0001) %MON exf_atemp_min                =   2.2656328048706E+02
(PID.TID 0000.0001) %MON exf_atemp_mean               =   2.8913628762144E+02
(PID.TID 0000.0001) %MON exf_atemp_sd                 =   1.2369635244102E+01
(PID.TID 0000.0001) %MON exf_atemp_del2               =   2.6569126365258E-02
(PID.TID 0000.0001) %MON exf_aqh_max                  =   2.2278498547773E-02
(PID.TID 0000.0001) %MON exf_aqh_min                  =   6.7511623152920E-05
(PID.TID 0000.0001) %MON exf_aqh_mean                 =   1.0862968199255E-02
(PID.TID 0000.0001) %MON exf_aqh_sd                   =   5.6146765998513E-03
(PID.TID 0000.0001) %MON exf_aqh_del2                 =   1.4568619676424E-05
(PID.TID 0000.0001) %MON exf_lwflux_max               =   2.2254446658933E+02
(PID.TID 0000.0001) %MON exf_lwflux_min               =  -2.3438019849558E+01
(PID.TID 0000.0001) %MON exf_lwflux_mean              =   4.9426299816288E+01
(PID.TID 0000.0001) %MON exf_lwflux_sd                =   2.9381597249026E+01
(PID.TID 0000.0001) %MON exf_lwflux_del2              =   1.0269664660226E-01
(PID.TID 0000.0001) %MON exf_evap_max                 =   2.6366805922080E-07
(PID.TID 0000.0001) %MON exf_evap_min                 =  -2.8844948374547E-08
(PID.TID 0000.0001) %MON exf_evap_mean                =   4.5701891761818E-08
(PID.TID 0000.0001) %MON exf_evap_sd                  =   2.9102429199148E-08
(PID.TID 0000.0001) %MON exf_evap_del2                =   7.3077405128646E-11
(PID.TID 0000.0001) %MON exf_precip_max               =   4.9067956145639E-06
(PID.TID 0000.0001) %MON exf_precip_min               =  -1.5374409597276E-08
(PID.TID 0000.0001) %MON exf_precip_mean              =   3.5770032331923E-08
(PID.TID 0000.0001) %MON exf_precip_sd                =   8.5755926217545E-08
(PID.TID 0000.0001) %MON exf_precip_del2              =   2.8085042027762E-10
(PID.TID 0000.0001) %MON exf_swflux_max               =   3.7559375580834E+01
(PID.TID 0000.0001) %MON exf_swflux_min               =  -8.1776507062970E+02
(PID.TID 0000.0001) %MON exf_swflux_mean              =  -1.8766738093706E+02
(PID.TID 0000.0001) %MON exf_swflux_sd                =   2.0348681058794E+02
(PID.TID 0000.0001) %MON exf_swflux_del2              =   3.8364711501162E-01
(PID.TID 0000.0001) %MON exf_swdown_max               =   8.8237141418457E+02
(PID.TID 0000.0001) %MON exf_swdown_min               =  -4.1304778456688E+01
(PID.TID 0000.0001) %MON exf_swdown_mean              =   2.0341598039330E+02
(PID.TID 0000.0001) %MON exf_swdown_sd                =   2.1994320252661E+02
(PID.TID 0000.0001) %MON exf_swdown_del2              =   4.1577395737065E-01
(PID.TID 0000.0001) %MON exf_lwdown_max               =   4.6588964335124E+02
(PID.TID 0000.0001) %MON exf_lwdown_min               =   7.7246610005697E+01
(PID.TID 0000.0001) %MON exf_lwdown_mean              =   3.6229755413338E+02
(PID.TID 0000.0001) %MON exf_lwdown_sd                =   6.5949519404813E+01
(PID.TID 0000.0001) %MON exf_lwdown_del2              =   4.8346082583189E-01
(PID.TID 0000.0001) %MON exf_runoff_max               =   2.0843929324920E-06
(PID.TID 0000.0001) %MON exf_runoff_min               =   0.0000000000000E+00
(PID.TID 0000.0001) %MON exf_runoff_mean              =   3.0288678533475E-09
(PID.TID 0000.0001) %MON exf_runoff_sd                =   2.4405578670881E-08
(PID.TID 0000.0001) %MON exf_runoff_del2              =   1.8283484405287E-11
(PID.TID 0000.0001) // =======================================================
(PID.TID 0000.0001) // End MONITOR EXF statistics
(PID.TID 0000.0001) // =======================================================
 SEAICE_LSR: Residual Initial ipass,Uice,Vice=    1  1.36417096E-01  1.58673042E-01
 SEAICE_LSR: Residual FrDrift U_fd,V_fd=  6.98927819E+01  7.98746603E+01
 SEAICE_LSR (ipass=   1) iters,dU,Resid=   306  1.97226481E-04  1.86583896E-03
 SEAICE_LSR (ipass=   1) iters,dV,Resid=   306  9.34801145E-06  9.50500201E-04
 SEAICE_LSR: Residual Initial ipass,Uice,Vice=    2  3.77766940E-01  4.23465703E-01
 SEAICE_LSR: Residual FrDrift U_fd,V_fd=  6.86603886E+01  7.90013968E+01
 SEAICE_LSR (ipass=   2) iters,dU,Resid=    70  1.89511866E-04  9.31996758E-04
 SEAICE_LSR (ipass=   2) iters,dV,Resid=    70  6.39854980E-05  1.15264750E-03
 cg2d: Sum(rhs),rhsMax =   4.66514000981800E+00  3.64698912798035E-01
 cg2d: Sum(rhs),rhsMax =   4.70407541260665E+00  3.68909066860082E-01
(PID.TID 0000.0001)      cg2d_init_res =   2.82744976857572E-01
(PID.TID 0000.0001)      cg2d_iters(min,last) =      -1      93
(PID.TID 0000.0001)      cg2d_last_res =   6.86735830711698E-06
(PID.TID 0000.0001) // =======================================================
(PID.TID 0000.0001) // Begin MONITOR dynamic field statistics
(PID.TID 0000.0001) // =======================================================
(PID.TID 0000.0001) %MON time_tsnumber                =                    42
(PID.TID 0000.0001) %MON time_secondsf                =   1.5120000000000E+05
(PID.TID 0000.0001) %MON dynstat_eta_max              =   1.4705383088131E+00
(PID.TID 0000.0001) %MON dynstat_eta_min              =  -4.1192282514973E+00
(PID.TID 0000.0001) %MON dynstat_eta_mean             =  -2.3808788659324E-03
(PID.TID 0000.0001) %MON dynstat_eta_sd               =   7.4209417996308E-01
(PID.TID 0000.0001) %MON dynstat_eta_del2             =   2.8780729956359E-04
(PID.TID 0000.0001) %MON dynstat_uvel_max             =   1.1395600595613E+00
(PID.TID 0000.0001) %MON dynstat_uvel_min             =  -7.3012722172020E-01
(PID.TID 0000.0001) %MON dynstat_uvel_mean            =   1.4106121909037E-03
(PID.TID 0000.0001) %MON dynstat_uvel_sd              =   2.1629847469642E-02
(PID.TID 0000.0001) %MON dynstat_uvel_del2            =   1.3590923232680E-05
(PID.TID 0000.0001) %MON dynstat_vvel_max             =   1.1939537380367E+00
(PID.TID 0000.0001) %MON dynstat_vvel_min             =  -9.3548049718118E-01
(PID.TID 0000.0001) %MON dynstat_vvel_mean            =   1.2196669467750E-03
(PID.TID 0000.0001) %MON dynstat_vvel_sd              =   2.4072346289713E-02
(PID.TID 0000.0001) %MON dynstat_vvel_del2            =   1.4091046942595E-05
(PID.TID 0000.0001) %MON dynstat_wvel_max             =   6.9260790564881E-04
(PID.TID 0000.0001) %MON dynstat_wvel_min             =  -1.7433556953054E-03
(PID.TID 0000.0001) %MON dynstat_wvel_mean            =  -2.7547566393680E-09
(PID.TID 0000.0001) %MON dynstat_wvel_sd              =   2.7496085754668E-05
(PID.TID 0000.0001) %MON dynstat_wvel_del2            =   2.7837399365023E-08
(PID.TID 0000.0001) %MON dynstat_theta_max            =   3.2714932274447E+01
(PID.TID 0000.0001) %MON dynstat_theta_min            =  -2.0420811842767E+00
(PID.TID 0000.0001) %MON dynstat_theta_mean           =   3.5906893018844E+00
(PID.TID 0000.0001) %MON dynstat_theta_sd             =   4.4365679012338E+00
(PID.TID 0000.0001) %MON dynstat_theta_del2           =   1.0550028505173E-04
(PID.TID 0000.0001) %MON dynstat_salt_max             =   4.0711441782101E+01
(PID.TID 0000.0001) %MON dynstat_salt_min             =   1.7516868727441E+01
(PID.TID 0000.0001) %MON dynstat_salt_mean            =   3.4725696558317E+01
(PID.TID 0000.0001) %MON dynstat_salt_sd              =   3.7885743885254E-01
(PID.TID 0000.0001) %MON dynstat_salt_del2            =   2.5634359138137E-05
(PID.TID 0000.0001) %MON dynstat_sst_max              =   3.2714932274447E+01
(PID.TID 0000.0001) %MON dynstat_sst_min              =  -1.9609897749242E+00
(PID.TID 0000.0001) %MON dynstat_sst_mean             =   1.8523349637022E+01
(PID.TID 0000.0001) %MON dynstat_sst_sd               =   1.0070390040516E+01
(PID.TID 0000.0001) %MON dynstat_sst_del2             =   8.7848537698518E-04
(PID.TID 0000.0001) %MON dynstat_sss_max              =   3.9715297932196E+01
(PID.TID 0000.0001) %MON dynstat_sss_min              =   1.7516868727441E+01
(PID.TID 0000.0001) %MON dynstat_sss_mean             =   3.4722325851677E+01
(PID.TID 0000.0001) %MON dynstat_sss_sd               =   1.2183047399857E+00
(PID.TID 0000.0001) %MON dynstat_sss_del2             =   3.8909218054582E-04
(PID.TID 0000.0001) %MON forcing_qnet_max             =   1.0838648269256E+03
(PID.TID 0000.0001) %MON forcing_qnet_min             =  -9.9320506527253E+02
(PID.TID 0000.0001) %MON forcing_qnet_mean            =  -5.3010392181857E+00
(PID.TID 0000.0001) %MON forcing_qnet_sd              =   2.0845297839057E+02
(PID.TID 0000.0001) %MON forcing_qnet_del2            =   1.5962670211248E-01
(PID.TID 0000.0001) %MON forcing_qsw_max              =   2.5461880305825E+01
(PID.TID 0000.0001) %MON forcing_qsw_min              =  -7.3930541955574E+02
(PID.TID 0000.0001) %MON forcing_qsw_mean             =  -1.8222883334001E+02
(PID.TID 0000.0001) %MON forcing_qsw_sd               =   1.8397717377337E+02
(PID.TID 0000.0001) %MON forcing_qsw_del2             =   7.8123110256401E-02
(PID.TID 0000.0001) %MON forcing_empmr_max            =   1.7537383711035E-03
(PID.TID 0000.0001) %MON forcing_empmr_min            =  -4.6367996891619E-03
(PID.TID 0000.0001) %MON forcing_empmr_mean           =   5.6327512210552E-06
(PID.TID 0000.0001) %MON forcing_empmr_sd             =   1.0808244853345E-04
(PID.TID 0000.0001) %MON forcing_empmr_del2           =   4.9126507344732E-07
(PID.TID 0000.0001) %MON forcing_fu_max               =   1.2129509699837E+00
(PID.TID 0000.0001) %MON forcing_fu_min               =  -2.0257647489050E+00
(PID.TID 0000.0001) %MON forcing_fu_mean              =   1.2175047438925E-02
(PID.TID 0000.0001) %MON forcing_fu_sd                =   1.1338278904949E-01
(PID.TID 0000.0001) %MON forcing_fu_del2              =   1.0304636721948E-04
(PID.TID 0000.0001) %MON forcing_fv_max               =   1.2642261432610E+00
(PID.TID 0000.0001) %MON forcing_fv_min               =  -1.1463501734032E+00
(PID.TID 0000.0001) %MON forcing_fv_mean              =   9.7277262597867E-04
(PID.TID 0000.0001) %MON forcing_fv_sd                =   1.1362503254513E-01
(PID.TID 0000.0001) %MON forcing_fv_del2              =   9.8695587439840E-05
(PID.TID 0000.0001) %MON trAdv_CFL_u_max              =   7.1394467376276E-02
(PID.TID 0000.0001) %MON trAdv_CFL_v_max              =   5.3123571366414E-02
(PID.TID 0000.0001) %MON trAdv_CFL_w_max              =   2.3353003636100E-01
(PID.TID 0000.0001) %MON advcfl_uvel_max              =   6.8282576148640E-02
(PID.TID 0000.0001) %MON advcfl_vvel_max              =   5.4256183027991E-02
(PID.TID 0000.0001) %MON advcfl_wvel_max              =   2.2303808163795E-01
(PID.TID 0000.0001) %MON advcfl_W_hf_max              =   2.3360463485110E-01
(PID.TID 0000.0001) %MON pe_b_mean                    =   4.2902944400137E-04
(PID.TID 0000.0001) %MON ke_max                       =   7.2237658689906E-01
(PID.TID 0000.0001) %MON ke_mean                      =   5.0669698241702E-04
(PID.TID 0000.0001) %MON ke_vol                       =   1.3349970316068E+18
(PID.TID 0000.0001) %MON vort_r_min                   =  -2.5288049189645E-05
(PID.TID 0000.0001) %MON vort_r_max                   =   2.5759475631018E-05
(PID.TID 0000.0001) %MON vort_a_mean                  =  -1.9727864647440E-05
(PID.TID 0000.0001) %MON vort_a_sd                    =   7.4543292465065E-05
(PID.TID 0000.0001) %MON vort_p_mean                  =  -2.1760539681669E-05
(PID.TID 0000.0001) %MON vort_p_sd                    =   9.7242899874493E-05
(PID.TID 0000.0001) %MON surfExpan_theta_mean         =   5.8705645066643E-08
(PID.TID 0000.0001) %MON surfExpan_salt_mean          =   3.2695470483647E-08
(PID.TID 0000.0001) // =======================================================
(PID.TID 0000.0001) // End MONITOR dynamic field statistics
(PID.TID 0000.0001) // =======================================================
(PID.TID 0000.0001) // =======================================================
(PID.TID 0000.0001) // Begin MONITOR SEAICE statistics
(PID.TID 0000.0001) // =======================================================
(PID.TID 0000.0001) %MON seaice_tsnumber              =                    42
(PID.TID 0000.0001) %MON seaice_time_sec              =   1.5120000000000E+05
(PID.TID 0000.0001) %MON seaice_uice_max              =   4.0000000000000E-01
(PID.TID 0000.0001) %MON seaice_uice_min              =  -4.0000000000000E-01
(PID.TID 0000.0001) %MON seaice_uice_mean             =   6.0990733003603E-03
(PID.TID 0000.0001) %MON seaice_uice_sd               =   1.9479144252599E-01
(PID.TID 0000.0001) %MON seaice_uice_del2             =   1.8995532698842E-04
(PID.TID 0000.0001) %MON seaice_vice_max              =   4.0000000000000E-01
(PID.TID 0000.0001) %MON seaice_vice_min              =  -4.0000000000000E-01
(PID.TID 0000.0001) %MON seaice_vice_mean             =  -9.2942953290836E-03
(PID.TID 0000.0001) %MON seaice_vice_sd               =   2.0054886950670E-01
(PID.TID 0000.0001) %MON seaice_vice_del2             =   2.1003144256357E-04
(PID.TID 0000.0001) %MON seaice_area_max              =   9.5000000000000E-01
(PID.TID 0000.0001) %MON seaice_area_min              =   0.0000000000000E+00
(PID.TID 0000.0001) %MON seaice_area_mean             =   3.8610695255636E-02
(PID.TID 0000.0001) %MON seaice_area_sd               =   1.7801319365298E-01
(PID.TID 0000.0001) %MON seaice_area_del2             =   2.6454740835688E-04
(PID.TID 0000.0001) %MON seaice_heff_max              =   4.0993998612514E+00
(PID.TID 0000.0001) %MON seaice_heff_min              =   0.0000000000000E+00
(PID.TID 0000.0001) %MON seaice_heff_mean             =   5.3565405304463E-02
(PID.TID 0000.0001) %MON seaice_heff_sd               =   3.0713686164630E-01
(PID.TID 0000.0001) %MON seaice_heff_del2             =   3.0050001932112E-04
(PID.TID 0000.0001) %MON seaice_hsnow_max             =   9.6817836228450E-01
(PID.TID 0000.0001) %MON seaice_hsnow_min             =  -2.3472726267732E-05
(PID.TID 0000.0001) %MON seaice_hsnow_mean            =   5.2189875593318E-03
(PID.TID 0000.0001) %MON seaice_hsnow_sd              =   3.1405224600655E-02
(PID.TID 0000.0001) %MON seaice_hsnow_del2            =   5.3259609293850E-05
(PID.TID 0000.0001) // =======================================================
(PID.TID 0000.0001) // End MONITOR SEAICE statistics
(PID.TID 0000.0001) // =======================================================
(PID.TID 0000.0001) // =======================================================
(PID.TID 0000.0001) // Begin MONITOR EXF statistics
(PID.TID 0000.0001) // =======================================================
(PID.TID 0000.0001) %MON exf_tsnumber                 =                    42
(PID.TID 0000.0001) %MON exf_time_sec                 =   1.5120000000000E+05
(PID.TID 0000.0001) %MON exf_ustress_max              =   1.6222189155696E+00
(PID.TID 0000.0001) %MON exf_ustress_min              =  -1.9455517000623E+00
(PID.TID 0000.0001) %MON exf_ustress_mean             =   1.3067884960651E-02
(PID.TID 0000.0001) %MON exf_ustress_sd               =   1.0692512579426E-01
(PID.TID 0000.0001) %MON exf_ustress_del2             =   1.0212511483288E-04
(PID.TID 0000.0001) %MON exf_vstress_max              =   1.0247690677643E+00
(PID.TID 0000.0001) %MON exf_vstress_min              =  -7.1452531488855E-01
(PID.TID 0000.0001) %MON exf_vstress_mean             =  -1.4782707952520E-04
(PID.TID 0000.0001) %MON exf_vstress_sd               =   1.0656374410586E-01
(PID.TID 0000.0001) %MON exf_vstress_del2             =   8.5653275746216E-05
(PID.TID 0000.0001) %MON exf_hflux_max                =   1.1434177247793E+03
(PID.TID 0000.0001) %MON exf_hflux_min                =  -5.6031409543056E+02
(PID.TID 0000.0001) %MON exf_hflux_mean               =   1.3137583929173E+01
(PID.TID 0000.0001) %MON exf_hflux_sd                 =   2.2800744749471E+02
(PID.TID 0000.0001) %MON exf_hflux_del2               =   4.2015106729020E-01
(PID.TID 0000.0001) %MON exf_sflux_max                =   2.4001294974272E-07
(PID.TID 0000.0001) %MON exf_sflux_min                =  -4.7659889325432E-06
(PID.TID 0000.0001) %MON exf_sflux_mean               =   5.9131306074344E-09
(PID.TID 0000.0001) %MON exf_sflux_sd                 =   9.3194548580214E-08
(PID.TID 0000.0001) %MON exf_sflux_del2               =   2.7199885221596E-10
(PID.TID 0000.0001) %MON exf_wspeed_max               =   2.1335591316223E+01
(PID.TID 0000.0001) %MON exf_wspeed_min               =   3.3893271535635E-01
(PID.TID 0000.0001) %MON exf_wspeed_mean              =   6.8959511711330E+00
(PID.TID 0000.0001) %MON exf_wspeed_sd                =   3.0604766555241E+00
(PID.TID 0000.0001) %MON exf_wspeed_del2              =   1.1859484861594E-02
(PID.TID 0000.0001) %MON exf_atemp_max                =   3.0485298862457E+02
(PID.TID 0000.0001) %MON exf_atemp_min                =   2.2611210861206E+02
(PID.TID 0000.0001) %MON exf_atemp_mean               =   2.8914736640408E+02
(PID.TID 0000.0001) %MON exf_atemp_sd                 =   1.2392812831035E+01
(PID.TID 0000.0001) %MON exf_atemp_del2               =   2.6578654146535E-02
(PID.TID 0000.0001) %MON exf_aqh_max                  =   2.2377692162991E-02
(PID.TID 0000.0001) %MON exf_aqh_min                  =   6.5547053964110E-05
(PID.TID 0000.0001) %MON exf_aqh_mean                 =   1.0867373697967E-02
(PID.TID 0000.0001) %MON exf_aqh_sd                   =   5.6147792502630E-03
(PID.TID 0000.0001) %MON exf_aqh_del2                 =   1.4551932874113E-05
(PID.TID 0000.0001) %MON exf_lwflux_max               =   2.2289388391429E+02
(PID.TID 0000.0001) %MON exf_lwflux_min               =  -2.2663415288973E+01
(PID.TID 0000.0001) %MON exf_lwflux_mean              =   4.9217862156920E+01
(PID.TID 0000.0001) %MON exf_lwflux_sd                =   2.9050285588683E+01
(PID.TID 0000.0001) %MON exf_lwflux_del2              =   1.0182980302778E-01
(PID.TID 0000.0001) %MON exf_evap_max                 =   2.4683540777230E-07
(PID.TID 0000.0001) %MON exf_evap_min                 =  -2.7725090439112E-08
(PID.TID 0000.0001) %MON exf_evap_mean                =   4.5523959471871E-08
(PID.TID 0000.0001) %MON exf_evap_sd                  =   2.8363479029816E-08
(PID.TID 0000.0001) %MON exf_evap_del2                =   7.2034091435840E-11
(PID.TID 0000.0001) %MON exf_precip_max               =   4.7980088311306E-06
(PID.TID 0000.0001) %MON exf_precip_min               =  -1.5414641119094E-08
(PID.TID 0000.0001) %MON exf_precip_mean              =   3.6582865436716E-08
(PID.TID 0000.0001) %MON exf_precip_sd                =   8.5140577869480E-08
(PID.TID 0000.0001) %MON exf_precip_del2              =   2.6913828254980E-10
(PID.TID 0000.0001) %MON exf_swflux_max               =   2.5476600533037E+01
(PID.TID 0000.0001) %MON exf_swflux_min               =  -6.9716683584686E+02
(PID.TID 0000.0001) %MON exf_swflux_mean              =  -1.7946686145261E+02
(PID.TID 0000.0001) %MON exf_swflux_sd                =   1.7817522579337E+02
(PID.TID 0000.0001) %MON exf_swflux_del2              =   3.5203002347397E-01
(PID.TID 0000.0001) %MON exf_swdown_max               =   7.5211355590820E+02
(PID.TID 0000.0001) %MON exf_swdown_min               =  -3.4142541885376E+01
(PID.TID 0000.0001) %MON exf_swdown_mean              =   1.9443191088618E+02
(PID.TID 0000.0001) %MON exf_swdown_sd                =   1.9244255800975E+02
(PID.TID 0000.0001) %MON exf_swdown_del2              =   3.8133632677661E-01
(PID.TID 0000.0001) %MON exf_lwdown_max               =   4.6631059265137E+02
(PID.TID 0000.0001) %MON exf_lwdown_min               =   7.6886451721191E+01
(PID.TID 0000.0001) %MON exf_lwdown_mean              =   3.6251350733123E+02
(PID.TID 0000.0001) %MON exf_lwdown_sd                =   6.5733585508830E+01
(PID.TID 0000.0001) %MON exf_lwdown_del2              =   4.8367824764863E-01
(PID.TID 0000.0001) %MON exf_runoff_max               =   2.0875470912899E-06
(PID.TID 0000.0001) %MON exf_runoff_min               =   0.0000000000000E+00
(PID.TID 0000.0001) %MON exf_runoff_mean              =   3.0279634277213E-09
(PID.TID 0000.0001) %MON exf_runoff_sd                =   2.4435113654693E-08
(PID.TID 0000.0001) %MON exf_runoff_del2              =   1.8294263427111E-11
(PID.TID 0000.0001) // =======================================================
(PID.TID 0000.0001) // End MONITOR EXF statistics
(PID.TID 0000.0001) // =======================================================
 SEAICE_LSR: Residual Initial ipass,Uice,Vice=    1  1.32018232E-01  1.58627910E-01
 SEAICE_LSR: Residual FrDrift U_fd,V_fd=  7.18894241E+01  7.92234721E+01
 SEAICE_LSR (ipass=   1) iters,dU,Resid=   294  1.96722068E-04  1.79461587E-03
 SEAICE_LSR (ipass=   1) iters,dV,Resid=   294  8.76700023E-06  9.25532285E-04
 SEAICE_LSR: Residual Initial ipass,Uice,Vice=    2  2.81887692E-01  3.41623856E-01
 SEAICE_LSR: Residual FrDrift U_fd,V_fd=  7.05210682E+01  7.88738055E+01
 SEAICE_LSR (ipass=   2) iters,dU,Resid=    70  1.96370171E-04  1.01668943E-03
 SEAICE_LSR (ipass=   2) iters,dV,Resid=    70  6.26126306E-05  1.02380103E-03
 cg2d: Sum(rhs),rhsMax =   4.74024560777471E+00  3.73432830317148E-01
 cg2d: Sum(rhs),rhsMax =   4.77355527974416E+00  3.78422266916166E-01
(PID.TID 0000.0001)      cg2d_init_res =   3.01040076424528E-01
(PID.TID 0000.0001)      cg2d_iters(min,last) =      -1      93
(PID.TID 0000.0001)      cg2d_last_res =   7.06807739677048E-06
(PID.TID 0000.0001) // =======================================================
(PID.TID 0000.0001) // Begin MONITOR dynamic field statistics
(PID.TID 0000.0001) // =======================================================
(PID.TID 0000.0001) %MON time_tsnumber                =                    44
(PID.TID 0000.0001) %MON time_secondsf                =   1.5840000000000E+05
(PID.TID 0000.0001) %MON dynstat_eta_max              =   1.5572257649186E+00
(PID.TID 0000.0001) %MON dynstat_eta_min              =  -4.0758299064458E+00
(PID.TID 0000.0001) %MON dynstat_eta_mean             =  -2.4160447875568E-03
(PID.TID 0000.0001) %MON dynstat_eta_sd               =   7.4197893479459E-01
(PID.TID 0000.0001) %MON dynstat_eta_del2             =   2.8739822115608E-04
(PID.TID 0000.0001) %MON dynstat_uvel_max             =   1.1970006300199E+00
(PID.TID 0000.0001) %MON dynstat_uvel_min             =  -7.4208995608875E-01
(PID.TID 0000.0001) %MON dynstat_uvel_mean            =   1.4174367557975E-03
(PID.TID 0000.0001) %MON dynstat_uvel_sd              =   2.1616736410187E-02
(PID.TID 0000.0001) %MON dynstat_uvel_del2            =   1.3546824174219E-05
(PID.TID 0000.0001) %MON dynstat_vvel_max             =   1.2096435247974E+00
(PID.TID 0000.0001) %MON dynstat_vvel_min             =  -9.3162047178137E-01
(PID.TID 0000.0001) %MON dynstat_vvel_mean            =   1.2222173883082E-03
(PID.TID 0000.0001) %MON dynstat_vvel_sd              =   2.4069822793754E-02
(PID.TID 0000.0001) %MON dynstat_vvel_del2            =   1.4000498374200E-05
(PID.TID 0000.0001) %MON dynstat_wvel_max             =   6.9303333875518E-04
(PID.TID 0000.0001) %MON dynstat_wvel_min             =  -1.7775953863019E-03
(PID.TID 0000.0001) %MON dynstat_wvel_mean            =  -2.7458206724133E-09
(PID.TID 0000.0001) %MON dynstat_wvel_sd              =   2.7382345443128E-05
(PID.TID 0000.0001) %MON dynstat_wvel_del2            =   2.7652782901309E-08
(PID.TID 0000.0001) %MON dynstat_theta_max            =   3.2734044035333E+01
(PID.TID 0000.0001) %MON dynstat_theta_min            =  -2.0420333967287E+00
(PID.TID 0000.0001) %MON dynstat_theta_mean           =   3.5906891245447E+00
(PID.TID 0000.0001) %MON dynstat_theta_sd             =   4.4365483155781E+00
(PID.TID 0000.0001) %MON dynstat_theta_del2           =   1.0544393652840E-04
(PID.TID 0000.0001) %MON dynstat_salt_max             =   4.0711436950150E+01
(PID.TID 0000.0001) %MON dynstat_salt_min             =   1.7519569078804E+01
(PID.TID 0000.0001) %MON dynstat_salt_mean            =   3.4725696880060E+01
(PID.TID 0000.0001) %MON dynstat_salt_sd              =   3.7885634882170E-01
(PID.TID 0000.0001) %MON dynstat_salt_del2            =   2.5618032442777E-05
(PID.TID 0000.0001) %MON dynstat_sst_max              =   3.2734044035333E+01
(PID.TID 0000.0001) %MON dynstat_sst_min              =  -1.9609683371959E+00
(PID.TID 0000.0001) %MON dynstat_sst_mean             =   1.8523185564211E+01
(PID.TID 0000.0001) %MON dynstat_sst_sd               =   1.0069308720755E+01
(PID.TID 0000.0001) %MON dynstat_sst_del2             =   8.7847137029321E-04
(PID.TID 0000.0001) %MON dynstat_sss_max              =   3.9714971229682E+01
(PID.TID 0000.0001) %MON dynstat_sss_min              =   1.7519569078804E+01
(PID.TID 0000.0001) %MON dynstat_sss_mean             =   3.4722375715683E+01
(PID.TID 0000.0001) %MON dynstat_sss_sd               =   1.2183364836144E+00
(PID.TID 0000.0001) %MON dynstat_sss_del2             =   3.8910494578973E-04
(PID.TID 0000.0001) %MON forcing_qnet_max             =   1.0819832847154E+03
(PID.TID 0000.0001) %MON forcing_qnet_min             =  -9.1465333322046E+02
(PID.TID 0000.0001) %MON forcing_qnet_mean            =   1.9000907884597E+00
(PID.TID 0000.0001) %MON forcing_qnet_sd              =   2.1268781485205E+02
(PID.TID 0000.0001) %MON forcing_qnet_del2            =   1.5574838978145E-01
(PID.TID 0000.0001) %MON forcing_qsw_max              =   2.5491320810265E+01
(PID.TID 0000.0001) %MON forcing_qsw_min              =  -7.1059460591705E+02
(PID.TID 0000.0001) %MON forcing_qsw_mean             =  -1.7423465778650E+02
(PID.TID 0000.0001) %MON forcing_qsw_sd               =   1.8667422089346E+02
(PID.TID 0000.0001) %MON forcing_qsw_del2             =   7.5924536327420E-02
(PID.TID 0000.0001) %MON forcing_empmr_max            =   1.7079616519298E-03
(PID.TID 0000.0001) %MON forcing_empmr_min            =  -5.2593848958553E-03
(PID.TID 0000.0001) %MON forcing_empmr_mean           =   4.8188815838804E-06
(PID.TID 0000.0001) %MON forcing_empmr_sd             =   1.1013813339475E-04
(PID.TID 0000.0001) %MON forcing_empmr_del2           =   4.8932878114414E-07
(PID.TID 0000.0001) %MON forcing_fu_max               =   1.3160037552852E+00
(PID.TID 0000.0001) %MON forcing_fu_min               =  -2.0480410408652E+00
(PID.TID 0000.0001) %MON forcing_fu_mean              =   1.2326303038958E-02
(PID.TID 0000.0001) %MON forcing_fu_sd                =   1.1361025020133E-01
(PID.TID 0000.0001) %MON forcing_fu_del2              =   1.0274887733647E-04
(PID.TID 0000.0001) %MON forcing_fv_max               =   1.2395950035458E+00
(PID.TID 0000.0001) %MON forcing_fv_min               =  -1.2188706408864E+00
(PID.TID 0000.0001) %MON forcing_fv_mean              =   3.7000182683255E-04
(PID.TID 0000.0001) %MON forcing_fv_sd                =   1.1260655779404E-01
(PID.TID 0000.0001) %MON forcing_fv_del2              =   9.6953856276974E-05
(PID.TID 0000.0001) %MON trAdv_CFL_u_max              =   7.4846299647858E-02
(PID.TID 0000.0001) %MON trAdv_CFL_v_max              =   5.1867308533103E-02
(PID.TID 0000.0001) %MON trAdv_CFL_w_max              =   2.3758210251386E-01
(PID.TID 0000.0001) %MON advcfl_uvel_max              =   7.1724422055272E-02
(PID.TID 0000.0001) %MON advcfl_vvel_max              =   5.3547936384648E-02
(PID.TID 0000.0001) %MON advcfl_wvel_max              =   2.2672968436991E-01
(PID.TID 0000.0001) %MON advcfl_W_hf_max              =   2.3765670105718E-01
(PID.TID 0000.0001) %MON pe_b_mean                    =   4.2848832598984E-04
(PID.TID 0000.0001) %MON ke_max                       =   7.4264738589048E-01
(PID.TID 0000.0001) %MON ke_mean                      =   5.0637736316994E-04
(PID.TID 0000.0001) %MON ke_vol                       =   1.3349970179975E+18
(PID.TID 0000.0001) %MON vort_r_min                   =  -2.7181149643133E-05
(PID.TID 0000.0001) %MON vort_r_max                   =   2.6459901735720E-05
(PID.TID 0000.0001) %MON vort_a_mean                  =  -1.9727864647440E-05
(PID.TID 0000.0001) %MON vort_a_sd                    =   7.4543291939525E-05
(PID.TID 0000.0001) %MON vort_p_mean                  =  -2.1760539817957E-05
(PID.TID 0000.0001) %MON vort_p_sd                    =   9.7243110402518E-05
(PID.TID 0000.0001) %MON surfExpan_theta_mean         =   3.2355675894815E-08
(PID.TID 0000.0001) %MON surfExpan_salt_mean          =   3.3029489954865E-08
(PID.TID 0000.0001) // =======================================================
(PID.TID 0000.0001) // End MONITOR dynamic field statistics
(PID.TID 0000.0001) // =======================================================
(PID.TID 0000.0001) // =======================================================
(PID.TID 0000.0001) // Begin MONITOR SEAICE statistics
(PID.TID 0000.0001) // =======================================================
(PID.TID 0000.0001) %MON seaice_tsnumber              =                    44
(PID.TID 0000.0001) %MON seaice_time_sec              =   1.5840000000000E+05
(PID.TID 0000.0001) %MON seaice_uice_max              =   4.0000000000000E-01
(PID.TID 0000.0001) %MON seaice_uice_min              =  -4.0000000000000E-01
(PID.TID 0000.0001) %MON seaice_uice_mean             =   7.5368532392689E-03
(PID.TID 0000.0001) %MON seaice_uice_sd               =   1.9458053219153E-01
(PID.TID 0000.0001) %MON seaice_uice_del2             =   1.8683082619825E-04
(PID.TID 0000.0001) %MON seaice_vice_max              =   4.0000000000000E-01
(PID.TID 0000.0001) %MON seaice_vice_min              =  -4.0000000000000E-01
(PID.TID 0000.0001) %MON seaice_vice_mean             =  -9.9053562614923E-03
(PID.TID 0000.0001) %MON seaice_vice_sd               =   2.0016812275957E-01
(PID.TID 0000.0001) %MON seaice_vice_del2             =   2.0386399785148E-04
(PID.TID 0000.0001) %MON seaice_area_max              =   9.5000000000000E-01
(PID.TID 0000.0001) %MON seaice_area_min              =   0.0000000000000E+00
(PID.TID 0000.0001) %MON seaice_area_mean             =   3.8555964903210E-02
(PID.TID 0000.0001) %MON seaice_area_sd               =   1.7790987807288E-01
(PID.TID 0000.0001) %MON seaice_area_del2             =   2.6554879443608E-04
(PID.TID 0000.0001) %MON seaice_heff_max              =   4.0120630973025E+00
(PID.TID 0000.0001) %MON seaice_heff_min              =   0.0000000000000E+00
(PID.TID 0000.0001) %MON seaice_heff_mean             =   5.3570822509294E-02
(PID.TID 0000.0001) %MON seaice_heff_sd               =   3.0728943518044E-01
(PID.TID 0000.0001) %MON seaice_heff_del2             =   2.9973784991992E-04
(PID.TID 0000.0001) %MON seaice_hsnow_max             =   9.6754397375791E-01
(PID.TID 0000.0001) %MON seaice_hsnow_min             =  -2.3463715922533E-05
(PID.TID 0000.0001) %MON seaice_hsnow_mean            =   5.2182196357542E-03
(PID.TID 0000.0001) %MON seaice_hsnow_sd              =   3.1408047650614E-02
(PID.TID 0000.0001) %MON seaice_hsnow_del2            =   5.3294078844125E-05
(PID.TID 0000.0001) // =======================================================
(PID.TID 0000.0001) // End MONITOR SEAICE statistics
(PID.TID 0000.0001) // =======================================================
(PID.TID 0000.0001) // =======================================================
(PID.TID 0000.0001) // Begin MONITOR EXF statistics
(PID.TID 0000.0001) // =======================================================
(PID.TID 0000.0001) %MON exf_tsnumber                 =                    44
(PID.TID 0000.0001) %MON exf_time_sec                 =   1.5840000000000E+05
(PID.TID 0000.0001) %MON exf_ustress_max              =   1.7658712025171E+00
(PID.TID 0000.0001) %MON exf_ustress_min              =  -1.9197693211866E+00
(PID.TID 0000.0001) %MON exf_ustress_mean             =   1.3239687147324E-02
(PID.TID 0000.0001) %MON exf_ustress_sd               =   1.0861976871347E-01
(PID.TID 0000.0001) %MON exf_ustress_del2             =   1.0479063848864E-04
(PID.TID 0000.0001) %MON exf_vstress_max              =   1.0165119965871E+00
(PID.TID 0000.0001) %MON exf_vstress_min              =  -7.4224234023812E-01
(PID.TID 0000.0001) %MON exf_vstress_mean             =  -7.0486791318187E-04
(PID.TID 0000.0001) %MON exf_vstress_sd               =   1.0736659481663E-01
(PID.TID 0000.0001) %MON exf_vstress_del2             =   8.9078119646494E-05
(PID.TID 0000.0001) %MON exf_hflux_max                =   1.2664297508896E+03
(PID.TID 0000.0001) %MON exf_hflux_min                =  -6.7786414703529E+02
(PID.TID 0000.0001) %MON exf_hflux_mean               =   2.0619154202499E+01
(PID.TID 0000.0001) %MON exf_hflux_sd                 =   2.5354458731876E+02
(PID.TID 0000.0001) %MON exf_hflux_del2               =   4.4920573371043E-01
(PID.TID 0000.0001) %MON exf_sflux_max                =   2.2386252216860E-07
(PID.TID 0000.0001) %MON exf_sflux_min                =  -5.7528695507756E-06
(PID.TID 0000.0001) %MON exf_sflux_mean               =   4.9220102746317E-09
(PID.TID 0000.0001) %MON exf_sflux_sd                 =   9.9695801862711E-08
(PID.TID 0000.0001) %MON exf_sflux_del2               =   3.0672546842751E-10
(PID.TID 0000.0001) %MON exf_wspeed_max               =   2.1975581487020E+01
(PID.TID 0000.0001) %MON exf_wspeed_min               =   2.2580659141143E-01
(PID.TID 0000.0001) %MON exf_wspeed_mean              =   6.8925132399905E+00
(PID.TID 0000.0001) %MON exf_wspeed_sd                =   3.1067098724283E+00
(PID.TID 0000.0001) %MON exf_wspeed_del2              =   1.2001338808681E-02
(PID.TID 0000.0001) %MON exf_atemp_max                =   3.0623086935679E+02
(PID.TID 0000.0001) %MON exf_atemp_min                =   2.2566093673706E+02
(PID.TID 0000.0001) %MON exf_atemp_mean               =   2.8915844518672E+02
(PID.TID 0000.0001) %MON exf_atemp_sd                 =   1.2424251611322E+01
(PID.TID 0000.0001) %MON exf_atemp_del2               =   2.6608433748817E-02
(PID.TID 0000.0001) %MON exf_aqh_max                  =   2.2635036458572E-02
(PID.TID 0000.0001) %MON exf_aqh_min                  =   6.3582484775300E-05
(PID.TID 0000.0001) %MON exf_aqh_mean                 =   1.0871779196679E-02
(PID.TID 0000.0001) %MON exf_aqh_sd                   =   5.6240353592182E-03
(PID.TID 0000.0001) %MON exf_aqh_del2                 =   1.4564112604225E-05
(PID.TID 0000.0001) %MON exf_lwflux_max               =   2.2324317082711E+02
(PID.TID 0000.0001) %MON exf_lwflux_min               =  -2.4145700056798E+01
(PID.TID 0000.0001) %MON exf_lwflux_mean              =   4.9006922452753E+01
(PID.TID 0000.0001) %MON exf_lwflux_sd                =   2.9310978844781E+01
(PID.TID 0000.0001) %MON exf_lwflux_del2              =   1.0215966425831E-01
(PID.TID 0000.0001) %MON exf_evap_max                 =   2.3072116577241E-07
(PID.TID 0000.0001) %MON exf_evap_min                 =  -3.4590861077059E-08
(PID.TID 0000.0001) %MON exf_evap_mean                =   4.5344767818236E-08
(PID.TID 0000.0001) %MON exf_evap_sd                  =   2.8255842374795E-08
(PID.TID 0000.0001) %MON exf_evap_del2                =   7.2758257230521E-11
(PID.TID 0000.0001) %MON exf_precip_max               =   5.7808027425684E-06
(PID.TID 0000.0001) %MON exf_precip_min               =  -1.5454872640911E-08
(PID.TID 0000.0001) %MON exf_precip_mean              =   3.7395698541509E-08
(PID.TID 0000.0001) %MON exf_precip_sd                =   9.2254698410894E-08
(PID.TID 0000.0001) %MON exf_precip_del2              =   3.0409222559373E-10
(PID.TID 0000.0001) %MON exf_swflux_max               =   2.5506041137508E+01
(PID.TID 0000.0001) %MON exf_swflux_min               =  -8.1625143995068E+02
(PID.TID 0000.0001) %MON exf_swflux_mean              =  -1.7126620274722E+02
(PID.TID 0000.0001) %MON exf_swflux_sd                =   2.0786434843057E+02
(PID.TID 0000.0001) %MON exf_swflux_del2              =   3.7372437843979E-01
(PID.TID 0000.0001) %MON exf_swdown_max               =   8.8041529591878E+02
(PID.TID 0000.0001) %MON exf_swdown_min               =  -3.4181880315145E+01
(PID.TID 0000.0001) %MON exf_swdown_mean              =   1.8544784137907E+02
(PID.TID 0000.0001) %MON exf_swdown_sd                =   2.2459205325485E+02
(PID.TID 0000.0001) %MON exf_swdown_del2              =   4.0473674343889E-01
(PID.TID 0000.0001) %MON exf_lwdown_max               =   4.7289250691732E+02
(PID.TID 0000.0001) %MON exf_lwdown_min               =   7.6526293436686E+01
(PID.TID 0000.0001) %MON exf_lwdown_mean              =   3.6272946052908E+02
(PID.TID 0000.0001) %MON exf_lwdown_sd                =   6.5795582245146E+01
(PID.TID 0000.0001) %MON exf_lwdown_del2              =   4.8416467448063E-01
(PID.TID 0000.0001) %MON exf_runoff_max               =   2.0907012500879E-06
(PID.TID 0000.0001) %MON exf_runoff_min               =   0.0000000000000E+00
(PID.TID 0000.0001) %MON exf_runoff_mean              =   3.0270590020951E-09
(PID.TID 0000.0001) %MON exf_runoff_sd                =   2.4464665902420E-08
(PID.TID 0000.0001) %MON exf_runoff_del2              =   1.8305066894706E-11
(PID.TID 0000.0001) // =======================================================
(PID.TID 0000.0001) // End MONITOR EXF statistics
(PID.TID 0000.0001) // =======================================================
 SEAICE_LSR: Residual Initial ipass,Uice,Vice=    1  1.34360020E-01  1.62711961E-01
 SEAICE_LSR: Residual FrDrift U_fd,V_fd=  7.44175659E+01  8.02223417E+01
 SEAICE_LSR (ipass=   1) iters,dU,Resid=   288  1.98382276E-04  1.70986207E-03
 SEAICE_LSR (ipass=   1) iters,dV,Resid=   288  9.35535778E-06  9.91588274E-04
 SEAICE_LSR: Residual Initial ipass,Uice,Vice=    2  2.56556465E-01  2.06228790E-01
 SEAICE_LSR: Residual FrDrift U_fd,V_fd=  7.36960600E+01  7.99902249E+01
 SEAICE_LSR (ipass=   2) iters,dU,Resid=    78  1.93864442E-04  1.29163253E-03
 SEAICE_LSR (ipass=   2) iters,dV,Resid=    78  5.69083296E-05  1.02007020E-03
 cg2d: Sum(rhs),rhsMax =   4.80391722733240E+00  3.83607390514221E-01
 cg2d: Sum(rhs),rhsMax =   4.83131500825663E+00  3.88825512002707E-01
(PID.TID 0000.0001)      cg2d_init_res =   3.22850444530903E-01
(PID.TID 0000.0001)      cg2d_iters(min,last) =      -1      95
(PID.TID 0000.0001)      cg2d_last_res =   6.33794572725244E-06
(PID.TID 0000.0001) // =======================================================
(PID.TID 0000.0001) // Begin MONITOR dynamic field statistics
(PID.TID 0000.0001) // =======================================================
(PID.TID 0000.0001) %MON time_tsnumber                =                    46
(PID.TID 0000.0001) %MON time_secondsf                =   1.6560000000000E+05
(PID.TID 0000.0001) %MON dynstat_eta_max              =   1.6340610149741E+00
(PID.TID 0000.0001) %MON dynstat_eta_min              =  -4.0338078606705E+00
(PID.TID 0000.0001) %MON dynstat_eta_mean             =  -2.4452787825199E-03
(PID.TID 0000.0001) %MON dynstat_eta_sd               =   7.4189007128836E-01
(PID.TID 0000.0001) %MON dynstat_eta_del2             =   2.8705847598124E-04
(PID.TID 0000.0001) %MON dynstat_uvel_max             =   1.2579596688403E+00
(PID.TID 0000.0001) %MON dynstat_uvel_min             =  -7.5485818522511E-01
(PID.TID 0000.0001) %MON dynstat_uvel_mean            =   1.4190288054855E-03
(PID.TID 0000.0001) %MON dynstat_uvel_sd              =   2.1635825814814E-02
(PID.TID 0000.0001) %MON dynstat_uvel_del2            =   1.3520953067811E-05
(PID.TID 0000.0001) %MON dynstat_vvel_max             =   1.2273362373028E+00
(PID.TID 0000.0001) %MON dynstat_vvel_min             =  -9.2650259791971E-01
(PID.TID 0000.0001) %MON dynstat_vvel_mean            =   1.2252699709570E-03
(PID.TID 0000.0001) %MON dynstat_vvel_sd              =   2.4059247066951E-02
(PID.TID 0000.0001) %MON dynstat_vvel_del2            =   1.3921859729668E-05
(PID.TID 0000.0001) %MON dynstat_wvel_max             =   7.1524889731939E-04
(PID.TID 0000.0001) %MON dynstat_wvel_min             =  -1.7790456398229E-03
(PID.TID 0000.0001) %MON dynstat_wvel_mean            =  -2.7348586406833E-09
(PID.TID 0000.0001) %MON dynstat_wvel_sd              =   2.7263590050318E-05
(PID.TID 0000.0001) %MON dynstat_wvel_del2            =   2.7470658770530E-08
(PID.TID 0000.0001) %MON dynstat_theta_max            =   3.2726186260715E+01
(PID.TID 0000.0001) %MON dynstat_theta_min            =  -2.0419838391022E+00
(PID.TID 0000.0001) %MON dynstat_theta_mean           =   3.5906855795557E+00
(PID.TID 0000.0001) %MON dynstat_theta_sd             =   4.4365069141045E+00
(PID.TID 0000.0001) %MON dynstat_theta_del2           =   1.0538331965803E-04
(PID.TID 0000.0001) %MON dynstat_salt_max             =   4.0711432480435E+01
(PID.TID 0000.0001) %MON dynstat_salt_min             =   1.7521979332540E+01
(PID.TID 0000.0001) %MON dynstat_salt_mean            =   3.4725697145596E+01
(PID.TID 0000.0001) %MON dynstat_salt_sd              =   3.7885523649331E-01
(PID.TID 0000.0001) %MON dynstat_salt_del2            =   2.5607924524350E-05
(PID.TID 0000.0001) %MON dynstat_sst_max              =   3.2726186260715E+01
(PID.TID 0000.0001) %MON dynstat_sst_min              =  -1.9609729601762E+00
(PID.TID 0000.0001) %MON dynstat_sst_mean             =   1.8523199221112E+01
(PID.TID 0000.0001) %MON dynstat_sst_sd               =   1.0067911063890E+01
(PID.TID 0000.0001) %MON dynstat_sst_del2             =   8.7864793065811E-04
(PID.TID 0000.0001) %MON dynstat_sss_max              =   3.9714967795319E+01
(PID.TID 0000.0001) %MON dynstat_sss_min              =   1.7521979332540E+01
(PID.TID 0000.0001) %MON dynstat_sss_mean             =   3.4722440920054E+01
(PID.TID 0000.0001) %MON dynstat_sss_sd               =   1.2183522519791E+00
(PID.TID 0000.0001) %MON dynstat_sss_del2             =   3.8920865397568E-04
(PID.TID 0000.0001) %MON forcing_qnet_max             =   1.0572276117376E+03
(PID.TID 0000.0001) %MON forcing_qnet_min             =  -7.9236696421496E+02
(PID.TID 0000.0001) %MON forcing_qnet_mean            =   9.1507740959854E+00
(PID.TID 0000.0001) %MON forcing_qnet_sd              =   2.6160175543194E+02
(PID.TID 0000.0001) %MON forcing_qnet_del2            =   1.6179349830795E-01
(PID.TID 0000.0001) %MON forcing_qsw_max              =   2.5520761514766E+01
(PID.TID 0000.0001) %MON forcing_qsw_min              =  -9.3578335047168E+02
(PID.TID 0000.0001) %MON forcing_qsw_mean             =  -1.6624041678161E+02
(PID.TID 0000.0001) %MON forcing_qsw_sd               =   2.3837504141520E+02
(PID.TID 0000.0001) %MON forcing_qsw_del2             =   8.7845361130934E-02
(PID.TID 0000.0001) %MON forcing_empmr_max            =   1.6881966616915E-03
(PID.TID 0000.0001) %MON forcing_empmr_min            =  -6.2464434961045E-03
(PID.TID 0000.0001) %MON forcing_empmr_mean           =   3.9636133930427E-06
(PID.TID 0000.0001) %MON forcing_empmr_sd             =   1.1867278242068E-04
(PID.TID 0000.0001) %MON forcing_empmr_del2           =   5.0531695775085E-07
(PID.TID 0000.0001) %MON forcing_fu_max               =   1.4190565405866E+00
(PID.TID 0000.0001) %MON forcing_fu_min               =  -2.0346095619973E+00
(PID.TID 0000.0001) %MON forcing_fu_mean              =   1.2503102485788E-02
(PID.TID 0000.0001) %MON forcing_fu_sd                =   1.1686148760917E-01
(PID.TID 0000.0001) %MON forcing_fu_del2              =   1.0913993341990E-04
(PID.TID 0000.0001) %MON forcing_fv_max               =   1.2300382365783E+00
(PID.TID 0000.0001) %MON forcing_fv_min               =  -1.3093598766958E+00
(PID.TID 0000.0001) %MON forcing_fv_mean              =  -2.1662786985753E-04
(PID.TID 0000.0001) %MON forcing_fv_sd                =   1.1474454974317E-01
(PID.TID 0000.0001) %MON forcing_fv_del2              =   1.0422953737339E-04
(PID.TID 0000.0001) %MON trAdv_CFL_u_max              =   7.8520054575566E-02
(PID.TID 0000.0001) %MON trAdv_CFL_v_max              =   5.5042467401912E-02
(PID.TID 0000.0001) %MON trAdv_CFL_w_max              =   2.3711345478534E-01
(PID.TID 0000.0001) %MON advcfl_uvel_max              =   7.5377095010312E-02
(PID.TID 0000.0001) %MON advcfl_vvel_max              =   5.4252546939433E-02
(PID.TID 0000.0001) %MON advcfl_wvel_max              =   2.2616184218676E-01
(PID.TID 0000.0001) %MON advcfl_W_hf_max              =   2.3718805337813E-01
(PID.TID 0000.0001) %MON pe_b_mean                    =   4.2797877712557E-04
(PID.TID 0000.0001) %MON ke_max                       =   7.9302337902981E-01
(PID.TID 0000.0001) %MON ke_mean                      =   5.0653575915560E-04
(PID.TID 0000.0001) %MON ke_vol                       =   1.3349970064601E+18
(PID.TID 0000.0001) %MON vort_r_min                   =  -2.9126766955502E-05
(PID.TID 0000.0001) %MON vort_r_max                   =   2.7459283977999E-05
(PID.TID 0000.0001) %MON vort_a_mean                  =  -1.9727864647440E-05
(PID.TID 0000.0001) %MON vort_a_sd                    =   7.4543291687723E-05
(PID.TID 0000.0001) %MON vort_p_mean                  =  -2.1760539921984E-05
(PID.TID 0000.0001) %MON vort_p_sd                    =   9.7243256951787E-05
(PID.TID 0000.0001) %MON surfExpan_theta_mean         =   4.4060542888485E-09
(PID.TID 0000.0001) %MON surfExpan_salt_mean          =   3.3400279585713E-08
(PID.TID 0000.0001) // =======================================================
(PID.TID 0000.0001) // End MONITOR dynamic field statistics
(PID.TID 0000.0001) // =======================================================
(PID.TID 0000.0001) // =======================================================
(PID.TID 0000.0001) // Begin MONITOR SEAICE statistics
(PID.TID 0000.0001) // =======================================================
(PID.TID 0000.0001) %MON seaice_tsnumber              =                    46
(PID.TID 0000.0001) %MON seaice_time_sec              =   1.6560000000000E+05
(PID.TID 0000.0001) %MON seaice_uice_max              =   4.0000000000000E-01
(PID.TID 0000.0001) %MON seaice_uice_min              =  -4.0000000000000E-01
(PID.TID 0000.0001) %MON seaice_uice_mean             =   8.3477618590154E-03
(PID.TID 0000.0001) %MON seaice_uice_sd               =   1.9436372455214E-01
(PID.TID 0000.0001) %MON seaice_uice_del2             =   1.8946310535885E-04
(PID.TID 0000.0001) %MON seaice_vice_max              =   4.0000000000000E-01
(PID.TID 0000.0001) %MON seaice_vice_min              =  -4.0000000000000E-01
(PID.TID 0000.0001) %MON seaice_vice_mean             =  -9.9096460317998E-03
(PID.TID 0000.0001) %MON seaice_vice_sd               =   2.0134725205887E-01
(PID.TID 0000.0001) %MON seaice_vice_del2             =   2.0659437641496E-04
(PID.TID 0000.0001) %MON seaice_area_max              =   9.5000000000000E-01
(PID.TID 0000.0001) %MON seaice_area_min              =   0.0000000000000E+00
(PID.TID 0000.0001) %MON seaice_area_mean             =   3.8514486712070E-02
(PID.TID 0000.0001) %MON seaice_area_sd               =   1.7782163522034E-01
(PID.TID 0000.0001) %MON seaice_area_del2             =   2.6573221683779E-04
(PID.TID 0000.0001) %MON seaice_heff_max              =   3.9872119589268E+00
(PID.TID 0000.0001) %MON seaice_heff_min              =   0.0000000000000E+00
(PID.TID 0000.0001) %MON seaice_heff_mean             =   5.3577335757003E-02
(PID.TID 0000.0001) %MON seaice_heff_sd               =   3.0744759861728E-01
(PID.TID 0000.0001) %MON seaice_heff_del2             =   2.9895998003613E-04
(PID.TID 0000.0001) %MON seaice_hsnow_max             =   9.6690833557820E-01
(PID.TID 0000.0001) %MON seaice_hsnow_min             =  -2.3480875546963E-05
(PID.TID 0000.0001) %MON seaice_hsnow_mean            =   5.2177598235757E-03
(PID.TID 0000.0001) %MON seaice_hsnow_sd              =   3.1410977057540E-02
(PID.TID 0000.0001) %MON seaice_hsnow_del2            =   5.3282047222381E-05
(PID.TID 0000.0001) // =======================================================
(PID.TID 0000.0001) // End MONITOR SEAICE statistics
(PID.TID 0000.0001) // =======================================================
(PID.TID 0000.0001) // =======================================================
(PID.TID 0000.0001) // Begin MONITOR EXF statistics
(PID.TID 0000.0001) // =======================================================
(PID.TID 0000.0001) %MON exf_tsnumber                 =                    46
(PID.TID 0000.0001) %MON exf_time_sec                 =   1.6560000000000E+05
(PID.TID 0000.0001) %MON exf_ustress_max              =   1.7381816422397E+00
(PID.TID 0000.0001) %MON exf_ustress_min              =  -1.8271243641396E+00
(PID.TID 0000.0001) %MON exf_ustress_mean             =   1.3238742253944E-02
(PID.TID 0000.0001) %MON exf_ustress_sd               =   1.0844925757734E-01
(PID.TID 0000.0001) %MON exf_ustress_del2             =   1.0296289189118E-04
(PID.TID 0000.0001) %MON exf_vstress_max              =   9.8325684666633E-01
(PID.TID 0000.0001) %MON exf_vstress_min              =  -7.5778578680284E-01
(PID.TID 0000.0001) %MON exf_vstress_mean             =  -8.7055773181422E-04
(PID.TID 0000.0001) %MON exf_vstress_sd               =   1.0683865487990E-01
(PID.TID 0000.0001) %MON exf_vstress_del2             =   8.8147651050873E-05
(PID.TID 0000.0001) %MON exf_hflux_max                =   1.2864060237497E+03
(PID.TID 0000.0001) %MON exf_hflux_min                =  -7.1026394450191E+02
(PID.TID 0000.0001) %MON exf_hflux_mean               =   2.2114666566856E+01
(PID.TID 0000.0001) %MON exf_hflux_sd                 =   2.5422208678975E+02
(PID.TID 0000.0001) %MON exf_hflux_del2               =   4.5137461339896E-01
(PID.TID 0000.0001) %MON exf_sflux_max                =   2.1820790051654E-07
(PID.TID 0000.0001) %MON exf_sflux_min                =  -5.5510484388466E-06
(PID.TID 0000.0001) %MON exf_sflux_mean               =   4.4625485715100E-09
(PID.TID 0000.0001) %MON exf_sflux_sd                 =   9.9258665041876E-08
(PID.TID 0000.0001) %MON exf_sflux_del2               =   3.0146420513853E-10
(PID.TID 0000.0001) %MON exf_wspeed_max               =   2.2317070007324E+01
(PID.TID 0000.0001) %MON exf_wspeed_min               =   2.6976531868180E-01
(PID.TID 0000.0001) %MON exf_wspeed_mean              =   6.8910751502408E+00
(PID.TID 0000.0001) %MON exf_wspeed_sd                =   3.1129000044707E+00
(PID.TID 0000.0001) %MON exf_wspeed_del2              =   1.2020375778446E-02
(PID.TID 0000.0001) %MON exf_atemp_max                =   3.0659951725006E+02
(PID.TID 0000.0001) %MON exf_atemp_min                =   2.2550699971517E+02
(PID.TID 0000.0001) %MON exf_atemp_mean               =   2.8915331910884E+02
(PID.TID 0000.0001) %MON exf_atemp_sd                 =   1.2422898404372E+01
(PID.TID 0000.0001) %MON exf_atemp_del2               =   2.6595769583525E-02
(PID.TID 0000.0001) %MON exf_aqh_max                  =   2.2361666895449E-02
(PID.TID 0000.0001) %MON exf_aqh_min                  =   6.3503241108265E-05
(PID.TID 0000.0001) %MON exf_aqh_mean                 =   1.0874955439213E-02
(PID.TID 0000.0001) %MON exf_aqh_sd                   =   5.6274317530164E-03
(PID.TID 0000.0001) %MON exf_aqh_del2                 =   1.4568965176770E-05
(PID.TID 0000.0001) %MON exf_lwflux_max               =   2.2350802239245E+02
(PID.TID 0000.0001) %MON exf_lwflux_min               =  -2.3430636643722E+01
(PID.TID 0000.0001) %MON exf_lwflux_mean              =   4.8986263655254E+01
(PID.TID 0000.0001) %MON exf_lwflux_sd                =   2.9273805501557E+01
(PID.TID 0000.0001) %MON exf_lwflux_del2              =   1.0193459341664E-01
(PID.TID 0000.0001) %MON exf_evap_max                 =   2.2325816616595E-07
(PID.TID 0000.0001) %MON exf_evap_min                 =  -3.1799558507049E-08
(PID.TID 0000.0001) %MON exf_evap_mean                =   4.5293173324827E-08
(PID.TID 0000.0001) %MON exf_evap_sd                  =   2.8211258083359E-08
(PID.TID 0000.0001) %MON exf_evap_del2                =   7.2862796676958E-11
(PID.TID 0000.0001) %MON exf_precip_max               =   5.5811777125806E-06
(PID.TID 0000.0001) %MON exf_precip_min               =  -1.5495104162729E-08
(PID.TID 0000.0001) %MON exf_precip_mean              =   3.7804470176848E-08
(PID.TID 0000.0001) %MON exf_precip_sd                =   9.1973188561959E-08
(PID.TID 0000.0001) %MON exf_precip_del2              =   2.9890778298381E-10
(PID.TID 0000.0001) %MON exf_swflux_max               =   2.5466124526051E+01
(PID.TID 0000.0001) %MON exf_swflux_min               =  -8.1874800604352E+02
(PID.TID 0000.0001) %MON exf_swflux_mean              =  -1.6967102236294E+02
(PID.TID 0000.0001) %MON exf_swflux_sd                =   2.0772171353699E+02
(PID.TID 0000.0001) %MON exf_swflux_del2              =   3.7070670384812E-01
(PID.TID 0000.0001) %MON exf_swdown_max               =   8.8310814412435E+02
(PID.TID 0000.0001) %MON exf_swdown_min               =  -3.4128269831340E+01
(PID.TID 0000.0001) %MON exf_swdown_mean              =   1.8374455233218E+02
(PID.TID 0000.0001) %MON exf_swdown_sd                =   2.2448694500202E+02
(PID.TID 0000.0001) %MON exf_swdown_del2              =   4.0165689642121E-01
(PID.TID 0000.0001) %MON exf_lwdown_max               =   4.7958374023438E+02
(PID.TID 0000.0001) %MON exf_lwdown_min               =   7.6253200531006E+01
(PID.TID 0000.0001) %MON exf_lwdown_mean              =   3.6275006337188E+02
(PID.TID 0000.0001) %MON exf_lwdown_sd                =   6.5748708859381E+01
(PID.TID 0000.0001) %MON exf_lwdown_del2              =   4.8433525900307E-01
(PID.TID 0000.0001) %MON exf_runoff_max               =   2.0938554088858E-06
(PID.TID 0000.0001) %MON exf_runoff_min               =   0.0000000000000E+00
(PID.TID 0000.0001) %MON exf_runoff_mean              =   3.0261545764688E-09
(PID.TID 0000.0001) %MON exf_runoff_sd                =   2.4494235351573E-08
(PID.TID 0000.0001) %MON exf_runoff_del2              =   1.8315894764813E-11
(PID.TID 0000.0001) // =======================================================
(PID.TID 0000.0001) // End MONITOR EXF statistics
(PID.TID 0000.0001) // =======================================================
 SEAICE_LSR: Residual Initial ipass,Uice,Vice=    1  1.33021831E-01  1.63013678E-01
 SEAICE_LSR: Residual FrDrift U_fd,V_fd=  7.85610059E+01  8.04578541E+01
 SEAICE_LSR (ipass=   1) iters,dU,Resid=   278  1.97408726E-04  1.74728639E-03
 SEAICE_LSR (ipass=   1) iters,dV,Resid=   278  2.38958376E-05  1.24572609E-03
 SEAICE_LSR: Residual Initial ipass,Uice,Vice=    2  2.54143793E-01  1.56930271E-01
 SEAICE_LSR: Residual FrDrift U_fd,V_fd=  7.76588809E+01  8.03885962E+01
 SEAICE_LSR (ipass=   2) iters,dU,Resid=    74  1.99825724E-04  1.72368187E-03
 SEAICE_LSR (ipass=   2) iters,dV,Resid=    74  7.02820488E-05  1.29504602E-03
 cg2d: Sum(rhs),rhsMax =   4.85871934329973E+00  3.94290539536339E-01
 cg2d: Sum(rhs),rhsMax =   4.88644830193409E+00  4.00056924611471E-01
(PID.TID 0000.0001)      cg2d_init_res =   3.44148604941728E-01
(PID.TID 0000.0001)      cg2d_iters(min,last) =      -1      95
(PID.TID 0000.0001)      cg2d_last_res =   6.34002312112779E-06
(PID.TID 0000.0001) // =======================================================
(PID.TID 0000.0001) // Begin MONITOR dynamic field statistics
(PID.TID 0000.0001) // =======================================================
(PID.TID 0000.0001) %MON time_tsnumber                =                    48
(PID.TID 0000.0001) %MON time_secondsf                =   1.7280000000000E+05
(PID.TID 0000.0001) %MON dynstat_eta_max              =   1.6899828244161E+00
(PID.TID 0000.0001) %MON dynstat_eta_min              =  -4.0287853599924E+00
(PID.TID 0000.0001) %MON dynstat_eta_mean             =  -2.4731834571288E-03
(PID.TID 0000.0001) %MON dynstat_eta_sd               =   7.4180969578675E-01
(PID.TID 0000.0001) %MON dynstat_eta_del2             =   2.8672298586731E-04
(PID.TID 0000.0001) %MON dynstat_uvel_max             =   1.2614705458678E+00
(PID.TID 0000.0001) %MON dynstat_uvel_min             =  -7.6784085701791E-01
(PID.TID 0000.0001) %MON dynstat_uvel_mean            =   1.4160270536136E-03
(PID.TID 0000.0001) %MON dynstat_uvel_sd              =   2.1646178540150E-02
(PID.TID 0000.0001) %MON dynstat_uvel_del2            =   1.3491226400484E-05
(PID.TID 0000.0001) %MON dynstat_vvel_max             =   1.2418727132289E+00
(PID.TID 0000.0001) %MON dynstat_vvel_min             =  -9.2299653002493E-01
(PID.TID 0000.0001) %MON dynstat_vvel_mean            =   1.2288874650795E-03
(PID.TID 0000.0001) %MON dynstat_vvel_sd              =   2.4040047204302E-02
(PID.TID 0000.0001) %MON dynstat_vvel_del2            =   1.3849767312033E-05
(PID.TID 0000.0001) %MON dynstat_wvel_max             =   7.3128848009755E-04
(PID.TID 0000.0001) %MON dynstat_wvel_min             =  -1.7240353704104E-03
(PID.TID 0000.0001) %MON dynstat_wvel_mean            =  -2.3324807334168E-09
(PID.TID 0000.0001) %MON dynstat_wvel_sd              =   2.7165043359982E-05
(PID.TID 0000.0001) %MON dynstat_wvel_del2            =   2.7281865173536E-08
(PID.TID 0000.0001) %MON dynstat_theta_max            =   3.2706037783168E+01
(PID.TID 0000.0001) %MON dynstat_theta_min            =  -2.0419335495580E+00
(PID.TID 0000.0001) %MON dynstat_theta_mean           =   3.5906827322494E+00
(PID.TID 0000.0001) %MON dynstat_theta_sd             =   4.4364626718132E+00
(PID.TID 0000.0001) %MON dynstat_theta_del2           =   1.0531726712668E-04
(PID.TID 0000.0001) %MON dynstat_salt_max             =   4.0711428449506E+01
(PID.TID 0000.0001) %MON dynstat_salt_min             =   1.7524058317860E+01
(PID.TID 0000.0001) %MON dynstat_salt_mean            =   3.4725697397060E+01
(PID.TID 0000.0001) %MON dynstat_salt_sd              =   3.7885404053099E-01
(PID.TID 0000.0001) %MON dynstat_salt_del2            =   2.5599617066632E-05
(PID.TID 0000.0001) %MON dynstat_sst_max              =   3.2706037783168E+01
(PID.TID 0000.0001) %MON dynstat_sst_min              =  -1.9609795801794E+00
(PID.TID 0000.0001) %MON dynstat_sst_mean             =   1.8523350194989E+01
(PID.TID 0000.0001) %MON dynstat_sst_sd               =   1.0066179753560E+01
(PID.TID 0000.0001) %MON dynstat_sst_del2             =   8.7879153509269E-04
(PID.TID 0000.0001) %MON dynstat_sss_max              =   3.9715569853464E+01
(PID.TID 0000.0001) %MON dynstat_sss_min              =   1.7524058317860E+01
(PID.TID 0000.0001) %MON dynstat_sss_mean             =   3.4722559861548E+01
(PID.TID 0000.0001) %MON dynstat_sss_sd               =   1.2183513552328E+00
(PID.TID 0000.0001) %MON dynstat_sss_del2             =   3.8930683143704E-04
(PID.TID 0000.0001) %MON forcing_qnet_max             =   1.0088339006595E+03
(PID.TID 0000.0001) %MON forcing_qnet_min             =  -6.6166505369310E+02
(PID.TID 0000.0001) %MON forcing_qnet_mean            =   4.8016416659493E+00
(PID.TID 0000.0001) %MON forcing_qnet_sd              =   2.1476488105618E+02
(PID.TID 0000.0001) %MON forcing_qnet_del2            =   1.4848120033773E-01
(PID.TID 0000.0001) %MON forcing_qsw_max              =   2.5411487350999E+01
(PID.TID 0000.0001) %MON forcing_qsw_min              =  -7.3958813074513E+02
(PID.TID 0000.0001) %MON forcing_qsw_mean             =  -1.7109234684376E+02
(PID.TID 0000.0001) %MON forcing_qsw_sd               =   1.8669549393126E+02
(PID.TID 0000.0001) %MON forcing_qsw_del2             =   7.5709381201975E-02
(PID.TID 0000.0001) %MON forcing_empmr_max            =   1.6253481407216E-03
(PID.TID 0000.0001) %MON forcing_empmr_min            =  -4.8552885574665E-03
(PID.TID 0000.0001) %MON forcing_empmr_mean           =   4.0115245873344E-06
(PID.TID 0000.0001) %MON forcing_empmr_sd             =   1.0920726256667E-04
(PID.TID 0000.0001) %MON forcing_empmr_del2           =   4.6059452296549E-07
(PID.TID 0000.0001) %MON forcing_fu_max               =   1.2533274911837E+00
(PID.TID 0000.0001) %MON forcing_fu_min               =  -1.8899575984481E+00
(PID.TID 0000.0001) %MON forcing_fu_mean              =   1.2379924351355E-02
(PID.TID 0000.0001) %MON forcing_fu_sd                =   1.1327851960820E-01
(PID.TID 0000.0001) %MON forcing_fu_del2              =   9.9923700076039E-05
(PID.TID 0000.0001) %MON forcing_fv_max               =   1.1738689693569E+00
(PID.TID 0000.0001) %MON forcing_fv_min               =  -1.2900181118067E+00
(PID.TID 0000.0001) %MON forcing_fv_mean              =  -5.4263560208697E-05
(PID.TID 0000.0001) %MON forcing_fv_sd                =   1.1125304663309E-01
(PID.TID 0000.0001) %MON forcing_fv_del2              =   9.5216257077311E-05
(PID.TID 0000.0001) %MON trAdv_CFL_u_max              =   7.8615619727254E-02
(PID.TID 0000.0001) %MON trAdv_CFL_v_max              =   5.6213251146901E-02
(PID.TID 0000.0001) %MON trAdv_CFL_w_max              =   2.2782948169472E-01
(PID.TID 0000.0001) %MON advcfl_uvel_max              =   7.5587975965717E-02
(PID.TID 0000.0001) %MON advcfl_vvel_max              =   5.3743879515666E-02
(PID.TID 0000.0001) %MON advcfl_wvel_max              =   2.1744955184329E-01
(PID.TID 0000.0001) %MON advcfl_W_hf_max              =   2.2790408027109E-01
(PID.TID 0000.0001) %MON pe_b_mean                    =   4.2748047177620E-04
(PID.TID 0000.0001) %MON ke_max                       =   7.9631534195595E-01
(PID.TID 0000.0001) %MON ke_mean                      =   5.0630662227480E-04
(PID.TID 0000.0001) %MON ke_vol                       =   1.3349969965299E+18
(PID.TID 0000.0001) %MON vort_r_min                   =  -2.9691189433003E-05
(PID.TID 0000.0001) %MON vort_r_max                   =   2.8304887996228E-05
(PID.TID 0000.0001) %MON vort_a_mean                  =  -1.9727864647440E-05
(PID.TID 0000.0001) %MON vort_a_sd                    =   7.4543291165027E-05
(PID.TID 0000.0001) %MON vort_p_mean                  =  -2.1760539993541E-05
(PID.TID 0000.0001) %MON vort_p_sd                    =   9.7243358696815E-05
(PID.TID 0000.0001) %MON surfExpan_theta_mean         =  -1.1747463379849E-08
(PID.TID 0000.0001) %MON surfExpan_salt_mean          =   3.4838766420228E-08
(PID.TID 0000.0001) // =======================================================
(PID.TID 0000.0001) // End MONITOR dynamic field statistics
(PID.TID 0000.0001) // =======================================================
(PID.TID 0000.0001) // =======================================================
(PID.TID 0000.0001) // Begin MONITOR SEAICE statistics
(PID.TID 0000.0001) // =======================================================
(PID.TID 0000.0001) %MON seaice_tsnumber              =                    48
(PID.TID 0000.0001) %MON seaice_time_sec              =   1.7280000000000E+05
(PID.TID 0000.0001) %MON seaice_uice_max              =   4.0000000000000E-01
(PID.TID 0000.0001) %MON seaice_uice_min              =  -4.0000000000000E-01
(PID.TID 0000.0001) %MON seaice_uice_mean             =   8.8897022210729E-03
(PID.TID 0000.0001) %MON seaice_uice_sd               =   1.9347090713098E-01
(PID.TID 0000.0001) %MON seaice_uice_del2             =   1.8493015666691E-04
(PID.TID 0000.0001) %MON seaice_vice_max              =   4.0000000000000E-01
(PID.TID 0000.0001) %MON seaice_vice_min              =  -4.0000000000000E-01
(PID.TID 0000.0001) %MON seaice_vice_mean             =  -8.3945227031844E-03
(PID.TID 0000.0001) %MON seaice_vice_sd               =   2.0142986443009E-01
(PID.TID 0000.0001) %MON seaice_vice_del2             =   2.0295053264491E-04
(PID.TID 0000.0001) %MON seaice_area_max              =   9.5000000000000E-01
(PID.TID 0000.0001) %MON seaice_area_min              =   0.0000000000000E+00
(PID.TID 0000.0001) %MON seaice_area_mean             =   3.8476975696464E-02
(PID.TID 0000.0001) %MON seaice_area_sd               =   1.7773799367969E-01
(PID.TID 0000.0001) %MON seaice_area_del2             =   2.6615533316561E-04
(PID.TID 0000.0001) %MON seaice_heff_max              =   3.9624249783294E+00
(PID.TID 0000.0001) %MON seaice_heff_min              =   0.0000000000000E+00
(PID.TID 0000.0001) %MON seaice_heff_mean             =   5.3584070549290E-02
(PID.TID 0000.0001) %MON seaice_heff_sd               =   3.0760643988377E-01
(PID.TID 0000.0001) %MON seaice_heff_del2             =   2.9822442689275E-04
(PID.TID 0000.0001) %MON seaice_hsnow_max             =   9.6623909828387E-01
(PID.TID 0000.0001) %MON seaice_hsnow_min             =  -2.3484950186579E-05
(PID.TID 0000.0001) %MON seaice_hsnow_mean            =   5.2166595325927E-03
(PID.TID 0000.0001) %MON seaice_hsnow_sd              =   3.1412339823158E-02
(PID.TID 0000.0001) %MON seaice_hsnow_del2            =   5.3239731074491E-05
(PID.TID 0000.0001) // =======================================================
(PID.TID 0000.0001) // End MONITOR SEAICE statistics
(PID.TID 0000.0001) // =======================================================
(PID.TID 0000.0001) // =======================================================
(PID.TID 0000.0001) // Begin MONITOR EXF statistics
(PID.TID 0000.0001) // =======================================================
(PID.TID 0000.0001) %MON exf_tsnumber                 =                    48
(PID.TID 0000.0001) %MON exf_time_sec                 =   1.7280000000000E+05
(PID.TID 0000.0001) %MON exf_ustress_max              =   1.5391502347376E+00
(PID.TID 0000.0001) %MON exf_ustress_min              =  -1.6676168289214E+00
(PID.TID 0000.0001) %MON exf_ustress_mean             =   1.3065050280510E-02
(PID.TID 0000.0001) %MON exf_ustress_sd               =   1.0702552726394E-01
(PID.TID 0000.0001) %MON exf_ustress_del2             =   9.6405375340435E-05
(PID.TID 0000.0001) %MON exf_vstress_max              =   9.2500361800193E-01
(PID.TID 0000.0001) %MON exf_vstress_min              =  -7.6349736617340E-01
(PID.TID 0000.0001) %MON exf_vstress_mean             =  -6.4489653542222E-04
(PID.TID 0000.0001) %MON exf_vstress_sd               =   1.0506235602059E-01
(PID.TID 0000.0001) %MON exf_vstress_del2             =   8.2486733978641E-05
(PID.TID 0000.0001) %MON exf_hflux_max                =   1.3044619812119E+03
(PID.TID 0000.0001) %MON exf_hflux_min                =  -6.1347381026416E+02
(PID.TID 0000.0001) %MON exf_hflux_mean               =   1.7660044647795E+01
(PID.TID 0000.0001) %MON exf_hflux_sd                 =   2.3169696625190E+02
(PID.TID 0000.0001) %MON exf_hflux_del2               =   4.2647981242274E-01
(PID.TID 0000.0001) %MON exf_sflux_max                =   2.2341907486799E-07
(PID.TID 0000.0001) %MON exf_sflux_min                =  -4.3235579308658E-06
(PID.TID 0000.0001) %MON exf_sflux_mean               =   4.5470758525856E-09
(PID.TID 0000.0001) %MON exf_sflux_sd                 =   9.1975398040517E-08
(PID.TID 0000.0001) %MON exf_sflux_del2               =   2.5081498197089E-10
(PID.TID 0000.0001) %MON exf_wspeed_max               =   2.2644577026367E+01
(PID.TID 0000.0001) %MON exf_wspeed_min               =   3.1512522697449E-01
(PID.TID 0000.0001) %MON exf_wspeed_mean              =   6.8916369018841E+00
(PID.TID 0000.0001) %MON exf_wspeed_sd                =   3.0799305933617E+00
(PID.TID 0000.0001) %MON exf_wspeed_del2              =   1.1912117057603E-02
(PID.TID 0000.0001) %MON exf_atemp_max                =   3.0595893230438E+02
(PID.TID 0000.0001) %MON exf_atemp_min                =   2.2565029754639E+02
(PID.TID 0000.0001) %MON exf_atemp_mean               =   2.8913198817043E+02
(PID.TID 0000.0001) %MON exf_atemp_sd                 =   1.2389169707382E+01
(PID.TID 0000.0001) %MON exf_atemp_del2               =   2.6542285038396E-02
(PID.TID 0000.0001) %MON exf_aqh_max                  =   2.1921895444393E-02
(PID.TID 0000.0001) %MON exf_aqh_min                  =   6.5309322963003E-05
(PID.TID 0000.0001) %MON exf_aqh_mean                 =   1.0876902425569E-02
(PID.TID 0000.0001) %MON exf_aqh_sd                   =   5.6235872451437E-03
(PID.TID 0000.0001) %MON exf_aqh_del2                 =   1.4562873090539E-05
(PID.TID 0000.0001) %MON exf_lwflux_max               =   2.2368843657477E+02
(PID.TID 0000.0001) %MON exf_lwflux_min               =  -2.2420397382322E+01
(PID.TID 0000.0001) %MON exf_lwflux_mean              =   4.9155646034523E+01
(PID.TID 0000.0001) %MON exf_lwflux_sd                =   2.8997544206867E+01
(PID.TID 0000.0001) %MON exf_lwflux_del2              =   1.0123985763512E-01
(PID.TID 0000.0001) %MON exf_evap_max                 =   2.2824721014846E-07
(PID.TID 0000.0001) %MON exf_evap_min                 =  -2.5556983109436E-08
(PID.TID 0000.0001) %MON exf_evap_mean                =   4.5381506346161E-08
(PID.TID 0000.0001) %MON exf_evap_sd                  =   2.8199070317686E-08
(PID.TID 0000.0001) %MON exf_evap_del2                =   7.2302006499609E-11
(PID.TID 0000.0001) %MON exf_precip_max               =   4.3524853481358E-06
(PID.TID 0000.0001) %MON exf_precip_min               =  -1.5535335684547E-08
(PID.TID 0000.0001) %MON exf_precip_mean              =   3.7809180342733E-08
(PID.TID 0000.0001) %MON exf_precip_sd                =   8.4545424500010E-08
(PID.TID 0000.0001) %MON exf_precip_del2              =   2.4842854877049E-10
(PID.TID 0000.0001) %MON exf_swflux_max               =   2.5356849989611E+01
(PID.TID 0000.0001) %MON exf_swflux_min               =  -7.0568585384264E+02
(PID.TID 0000.0001) %MON exf_swflux_mean              =  -1.7468151767884E+02
(PID.TID 0000.0001) %MON exf_swflux_sd                =   1.7918827079380E+02
(PID.TID 0000.0001) %MON exf_swflux_del2              =   3.4218497711138E-01
(PID.TID 0000.0001) %MON exf_swdown_max               =   7.6151843261719E+02
(PID.TID 0000.0001) %MON exf_swdown_min               =  -3.3999635696411E+01
(PID.TID 0000.0001) %MON exf_swdown_mean              =   1.8932204374550E+02
(PID.TID 0000.0001) %MON exf_swdown_sd                =   1.9368630908466E+02
(PID.TID 0000.0001) %MON exf_swdown_del2              =   3.7126877784953E-01
(PID.TID 0000.0001) %MON exf_lwdown_max               =   4.6540832519531E+02
(PID.TID 0000.0001) %MON exf_lwdown_min               =   7.6067173004150E+01
(PID.TID 0000.0001) %MON exf_lwdown_mean              =   3.6257531585962E+02
(PID.TID 0000.0001) %MON exf_lwdown_sd                =   6.5622046051634E+01
(PID.TID 0000.0001) %MON exf_lwdown_del2              =   4.8421064043746E-01
(PID.TID 0000.0001) %MON exf_runoff_max               =   2.0970095676838E-06
(PID.TID 0000.0001) %MON exf_runoff_min               =   0.0000000000000E+00
(PID.TID 0000.0001) %MON exf_runoff_mean              =   3.0252501508426E-09
(PID.TID 0000.0001) %MON exf_runoff_sd                =   2.4523821939933E-08
(PID.TID 0000.0001) %MON exf_runoff_del2              =   1.8326746994180E-11
(PID.TID 0000.0001) // =======================================================
(PID.TID 0000.0001) // End MONITOR EXF statistics
(PID.TID 0000.0001) // =======================================================
 SEAICE_LSR: Residual Initial ipass,Uice,Vice=    1  1.29195967E-01  1.61753016E-01
 SEAICE_LSR: Residual FrDrift U_fd,V_fd=  8.24636271E+01  8.07828421E+01
 SEAICE_LSR (ipass=   1) iters,dU,Resid=   226  1.99240928E-04  1.49064689E-03
 SEAICE_LSR (ipass=   1) iters,dV,Resid=   226  1.66611827E-05  1.61849785E-03
 SEAICE_LSR: Residual Initial ipass,Uice,Vice=    2  2.88787063E-01  2.15085147E-01
 SEAICE_LSR: Residual FrDrift U_fd,V_fd=  8.15012711E+01  8.04222599E+01
 SEAICE_LSR (ipass=   2) iters,dU,Resid=    58  1.99163599E-04  1.81857555E-03
 SEAICE_LSR (ipass=   2) iters,dV,Resid=    58  1.37309155E-04  1.59337244E-03
 cg2d: Sum(rhs),rhsMax =   4.91446462234159E+00  4.05894703363176E-01
 cg2d: Sum(rhs),rhsMax =   4.94272010536791E+00  4.03491843862762E-01
(PID.TID 0000.0001)      cg2d_init_res =   3.45711853557523E-01
(PID.TID 0000.0001)      cg2d_iters(min,last) =      -1      94
(PID.TID 0000.0001)      cg2d_last_res =   6.75557538586956E-06
(PID.TID 0000.0001) // =======================================================
(PID.TID 0000.0001) // Begin MONITOR dynamic field statistics
(PID.TID 0000.0001) // =======================================================
(PID.TID 0000.0001) %MON time_tsnumber                =                    50
(PID.TID 0000.0001) %MON time_secondsf                =   1.8000000000000E+05
(PID.TID 0000.0001) %MON dynstat_eta_max              =   1.7211470285784E+00
(PID.TID 0000.0001) %MON dynstat_eta_min              =  -4.0273331174691E+00
(PID.TID 0000.0001) %MON dynstat_eta_mean             =  -2.5016643669342E-03
(PID.TID 0000.0001) %MON dynstat_eta_sd               =   7.4172690399840E-01
(PID.TID 0000.0001) %MON dynstat_eta_del2             =   2.8624515754850E-04
(PID.TID 0000.0001) %MON dynstat_uvel_max             =   1.2292961818614E+00
(PID.TID 0000.0001) %MON dynstat_uvel_min             =  -7.7998269861962E-01
(PID.TID 0000.0001) %MON dynstat_uvel_mean            =   1.4097030762687E-03
(PID.TID 0000.0001) %MON dynstat_uvel_sd              =   2.1649009786102E-02
(PID.TID 0000.0001) %MON dynstat_uvel_del2            =   1.3449612037637E-05
(PID.TID 0000.0001) %MON dynstat_vvel_max             =   1.2544754238466E+00
(PID.TID 0000.0001) %MON dynstat_vvel_min             =  -9.2290078078876E-01
(PID.TID 0000.0001) %MON dynstat_vvel_mean            =   1.2319499320041E-03
(PID.TID 0000.0001) %MON dynstat_vvel_sd              =   2.4013992032313E-02
(PID.TID 0000.0001) %MON dynstat_vvel_del2            =   1.3778254455041E-05
(PID.TID 0000.0001) %MON dynstat_wvel_max             =   7.3002050253706E-04
(PID.TID 0000.0001) %MON dynstat_wvel_min             =  -1.6160224075768E-03
(PID.TID 0000.0001) %MON dynstat_wvel_mean            =  -2.5353959568831E-09
(PID.TID 0000.0001) %MON dynstat_wvel_sd              =   2.7056537495495E-05
(PID.TID 0000.0001) %MON dynstat_wvel_del2            =   2.7052511811085E-08
(PID.TID 0000.0001) %MON dynstat_theta_max            =   3.2688173038070E+01
(PID.TID 0000.0001) %MON dynstat_theta_min            =  -2.0418843580209E+00
(PID.TID 0000.0001) %MON dynstat_theta_mean           =   3.5906819080399E+00
(PID.TID 0000.0001) %MON dynstat_theta_sd             =   4.4364215676510E+00
(PID.TID 0000.0001) %MON dynstat_theta_del2           =   1.0525756047644E-04
(PID.TID 0000.0001) %MON dynstat_salt_max             =   4.0711424833898E+01
(PID.TID 0000.0001) %MON dynstat_salt_min             =   1.7525896340206E+01
(PID.TID 0000.0001) %MON dynstat_salt_mean            =   3.4725697654960E+01
(PID.TID 0000.0001) %MON dynstat_salt_sd              =   3.7885269426274E-01
(PID.TID 0000.0001) %MON dynstat_salt_del2            =   2.5589550479229E-05
(PID.TID 0000.0001) %MON dynstat_sst_max              =   3.2688142446684E+01
(PID.TID 0000.0001) %MON dynstat_sst_min              =  -1.9609639006635E+00
(PID.TID 0000.0001) %MON dynstat_sst_mean             =   1.8523354006267E+01
(PID.TID 0000.0001) %MON dynstat_sst_sd               =   1.0063879863309E+01
(PID.TID 0000.0001) %MON dynstat_sst_del2             =   8.7896694020905E-04
(PID.TID 0000.0001) %MON dynstat_sss_max              =   3.9716624870936E+01
(PID.TID 0000.0001) %MON dynstat_sss_min              =   1.7525896340206E+01
(PID.TID 0000.0001) %MON dynstat_sss_mean             =   3.4722671102363E+01
(PID.TID 0000.0001) %MON dynstat_sss_sd               =   1.2183175765268E+00
(PID.TID 0000.0001) %MON dynstat_sss_del2             =   3.8933660134109E-04
(PID.TID 0000.0001) %MON forcing_qnet_max             =   9.4102785456340E+02
(PID.TID 0000.0001) %MON forcing_qnet_min             =  -5.8089715235480E+02
(PID.TID 0000.0001) %MON forcing_qnet_mean            =   5.5584820568691E-01
(PID.TID 0000.0001) %MON forcing_qnet_sd              =   2.1451084340956E+02
(PID.TID 0000.0001) %MON forcing_qnet_del2            =   1.4734087415204E-01
(PID.TID 0000.0001) %MON forcing_qsw_max              =   2.5302212441886E+01
(PID.TID 0000.0001) %MON forcing_qsw_min              =  -7.5614187666946E+02
(PID.TID 0000.0001) %MON forcing_qsw_mean             =  -1.7594791613190E+02
(PID.TID 0000.0001) %MON forcing_qsw_sd               =   1.8612919432565E+02
(PID.TID 0000.0001) %MON forcing_qsw_del2             =   7.6227912067453E-02
(PID.TID 0000.0001) %MON forcing_empmr_max            =   1.5628851053242E-03
(PID.TID 0000.0001) %MON forcing_empmr_min            =  -4.1391649418256E-03
(PID.TID 0000.0001) %MON forcing_empmr_mean           =   4.0876964181835E-06
(PID.TID 0000.0001) %MON forcing_empmr_sd             =   1.0635708227569E-04
(PID.TID 0000.0001) %MON forcing_empmr_del2           =   4.4251569958445E-07
(PID.TID 0000.0001) %MON forcing_fu_max               =   1.0875984417807E+00
(PID.TID 0000.0001) %MON forcing_fu_min               =  -1.7765735958742E+00
(PID.TID 0000.0001) %MON forcing_fu_mean              =   1.2256319939010E-02
(PID.TID 0000.0001) %MON forcing_fu_sd                =   1.1345509654605E-01
(PID.TID 0000.0001) %MON forcing_fu_del2              =   9.7550331388093E-05
(PID.TID 0000.0001) %MON forcing_fv_max               =   1.1340985054760E+00
(PID.TID 0000.0001) %MON forcing_fv_min               =  -1.2586313453027E+00
(PID.TID 0000.0001) %MON forcing_fv_mean              =   7.5815716765319E-05
(PID.TID 0000.0001) %MON forcing_fv_sd                =   1.1110771123864E-01
(PID.TID 0000.0001) %MON forcing_fv_del2              =   9.5599109615828E-05
(PID.TID 0000.0001) %MON trAdv_CFL_u_max              =   7.6777014234095E-02
(PID.TID 0000.0001) %MON trAdv_CFL_v_max              =   5.6534951862707E-02
(PID.TID 0000.0001) %MON trAdv_CFL_w_max              =   2.1338644950070E-01
(PID.TID 0000.0001) %MON advcfl_uvel_max              =   7.3659575415006E-02
(PID.TID 0000.0001) %MON advcfl_vvel_max              =   5.2440699630635E-02
(PID.TID 0000.0001) %MON advcfl_wvel_max              =   2.1370479839121E-01
(PID.TID 0000.0001) %MON advcfl_W_hf_max              =   2.2410501570890E-01
(PID.TID 0000.0001) %MON pe_b_mean                    =   4.2697997524190E-04
(PID.TID 0000.0001) %MON ke_max                       =   7.9867863428848E-01
(PID.TID 0000.0001) %MON ke_mean                      =   5.0575693856188E-04
(PID.TID 0000.0001) %MON ke_vol                       =   1.3349969864287E+18
(PID.TID 0000.0001) %MON vort_r_min                   =  -2.9499926256009E-05
(PID.TID 0000.0001) %MON vort_r_max                   =   2.8801478382873E-05
(PID.TID 0000.0001) %MON vort_a_mean                  =  -1.9727864647440E-05
(PID.TID 0000.0001) %MON vort_a_sd                    =   7.4543289679555E-05
(PID.TID 0000.0001) %MON vort_p_mean                  =  -2.1760540057455E-05
(PID.TID 0000.0001) %MON vort_p_sd                    =   9.7243479213454E-05
(PID.TID 0000.0001) %MON surfExpan_theta_mean         =  -3.2532842192429E-08
(PID.TID 0000.0001) %MON surfExpan_salt_mean          =   3.5082823051517E-08
(PID.TID 0000.0001) // =======================================================
(PID.TID 0000.0001) // End MONITOR dynamic field statistics
(PID.TID 0000.0001) // =======================================================
(PID.TID 0000.0001) // =======================================================
(PID.TID 0000.0001) // Begin MONITOR SEAICE statistics
(PID.TID 0000.0001) // =======================================================
(PID.TID 0000.0001) %MON seaice_tsnumber              =                    50
(PID.TID 0000.0001) %MON seaice_time_sec              =   1.8000000000000E+05
(PID.TID 0000.0001) %MON seaice_uice_max              =   4.0000000000000E-01
(PID.TID 0000.0001) %MON seaice_uice_min              =  -4.0000000000000E-01
(PID.TID 0000.0001) %MON seaice_uice_mean             =   8.3637756949793E-03
(PID.TID 0000.0001) %MON seaice_uice_sd               =   1.9281622709780E-01
(PID.TID 0000.0001) %MON seaice_uice_del2             =   1.8280605765618E-04
(PID.TID 0000.0001) %MON seaice_vice_max              =   4.0000000000000E-01
(PID.TID 0000.0001) %MON seaice_vice_min              =  -4.0000000000000E-01
(PID.TID 0000.0001) %MON seaice_vice_mean             =  -6.8300364773025E-03
(PID.TID 0000.0001) %MON seaice_vice_sd               =   2.0092438523685E-01
(PID.TID 0000.0001) %MON seaice_vice_del2             =   2.0041160284027E-04
(PID.TID 0000.0001) %MON seaice_area_max              =   9.5000000000000E-01
(PID.TID 0000.0001) %MON seaice_area_min              =   0.0000000000000E+00
(PID.TID 0000.0001) %MON seaice_area_mean             =   3.8427425923688E-02
(PID.TID 0000.0001) %MON seaice_area_sd               =   1.7762885578801E-01
(PID.TID 0000.0001) %MON seaice_area_del2             =   2.7082431574526E-04
(PID.TID 0000.0001) %MON seaice_heff_max              =   3.9623379598085E+00
(PID.TID 0000.0001) %MON seaice_heff_min              =   0.0000000000000E+00
(PID.TID 0000.0001) %MON seaice_heff_mean             =   5.3590861908822E-02
(PID.TID 0000.0001) %MON seaice_heff_sd               =   3.0776186611770E-01
(PID.TID 0000.0001) %MON seaice_heff_del2             =   2.9753038967094E-04
(PID.TID 0000.0001) %MON seaice_hsnow_max             =   9.6552659708419E-01
(PID.TID 0000.0001) %MON seaice_hsnow_min             =  -2.3489024826194E-05
(PID.TID 0000.0001) %MON seaice_hsnow_mean            =   5.2151525955782E-03
(PID.TID 0000.0001) %MON seaice_hsnow_sd              =   3.1415651843856E-02
(PID.TID 0000.0001) %MON seaice_hsnow_del2            =   5.3223071975846E-05
(PID.TID 0000.0001) // =======================================================
(PID.TID 0000.0001) // End MONITOR SEAICE statistics
(PID.TID 0000.0001) // =======================================================
(PID.TID 0000.0001) // =======================================================
(PID.TID 0000.0001) // Begin MONITOR EXF statistics
(PID.TID 0000.0001) // =======================================================
(PID.TID 0000.0001) %MON exf_tsnumber                 =                    50
(PID.TID 0000.0001) %MON exf_time_sec                 =   1.8000000000000E+05
(PID.TID 0000.0001) %MON exf_ustress_max              =   1.3401188272354E+00
(PID.TID 0000.0001) %MON exf_ustress_min              =  -1.5081092937032E+00
(PID.TID 0000.0001) %MON exf_ustress_mean             =   1.2891358307076E-02
(PID.TID 0000.0001) %MON exf_ustress_sd               =   1.0965653648753E-01
(PID.TID 0000.0001) %MON exf_ustress_del2             =   1.0013517811151E-04
(PID.TID 0000.0001) %MON exf_vstress_max              =   8.6675038933753E-01
(PID.TID 0000.0001) %MON exf_vstress_min              =  -7.9638332128525E-01
(PID.TID 0000.0001) %MON exf_vstress_mean             =  -4.1923533903025E-04
(PID.TID 0000.0001) %MON exf_vstress_sd               =   1.0681304981975E-01
(PID.TID 0000.0001) %MON exf_vstress_del2             =   8.9467651745134E-05
(PID.TID 0000.0001) %MON exf_hflux_max                =   1.3225928244986E+03
(PID.TID 0000.0001) %MON exf_hflux_min                =  -6.9875814014805E+02
(PID.TID 0000.0001) %MON exf_hflux_mean               =   1.3337461427692E+01
(PID.TID 0000.0001) %MON exf_hflux_sd                 =   2.5479913670062E+02
(PID.TID 0000.0001) %MON exf_hflux_del2               =   4.4859266084116E-01
(PID.TID 0000.0001) %MON exf_sflux_max                =   2.2850080093421E-07
(PID.TID 0000.0001) %MON exf_sflux_min                =  -3.9547687738834E-06
(PID.TID 0000.0001) %MON exf_sflux_mean               =   4.6433345577433E-09
(PID.TID 0000.0001) %MON exf_sflux_sd                 =   9.2565880800701E-08
(PID.TID 0000.0001) %MON exf_sflux_del2               =   2.4524964047389E-10
(PID.TID 0000.0001) %MON exf_wspeed_max               =   2.2972084045410E+01
(PID.TID 0000.0001) %MON exf_wspeed_min               =   2.7207398414612E-01
(PID.TID 0000.0001) %MON exf_wspeed_mean              =   6.8921986535273E+00
(PID.TID 0000.0001) %MON exf_wspeed_sd                =   3.1465563750299E+00
(PID.TID 0000.0001) %MON exf_wspeed_del2              =   1.2054576624097E-02
(PID.TID 0000.0001) %MON exf_atemp_max                =   3.0531834735870E+02
(PID.TID 0000.0001) %MON exf_atemp_min                =   2.2579359537760E+02
(PID.TID 0000.0001) %MON exf_atemp_mean               =   2.8911065723203E+02
(PID.TID 0000.0001) %MON exf_atemp_sd                 =   1.2364264905906E+01
(PID.TID 0000.0001) %MON exf_atemp_del2               =   2.6511271929764E-02
(PID.TID 0000.0001) %MON exf_aqh_max                  =   2.1953752885262E-02
(PID.TID 0000.0001) %MON exf_aqh_min                  =   6.7115404817741E-05
(PID.TID 0000.0001) %MON exf_aqh_mean                 =   1.0878849411925E-02
(PID.TID 0000.0001) %MON exf_aqh_sd                   =   5.6270311447377E-03
(PID.TID 0000.0001) %MON exf_aqh_del2                 =   1.4580794502958E-05
(PID.TID 0000.0001) %MON exf_lwflux_max               =   2.2386886461399E+02
(PID.TID 0000.0001) %MON exf_lwflux_min               =  -2.2930608723763E+01
(PID.TID 0000.0001) %MON exf_lwflux_mean              =   4.9323886958729E+01
(PID.TID 0000.0001) %MON exf_lwflux_sd                =   2.9393564240260E+01
(PID.TID 0000.0001) %MON exf_lwflux_del2              =   1.0187147937807E-01
(PID.TID 0000.0001) %MON exf_evap_max                 =   2.3335392227131E-07
(PID.TID 0000.0001) %MON exf_evap_min                 =  -2.8878895430153E-08
(PID.TID 0000.0001) %MON exf_evap_mean                =   4.5481570791577E-08
(PID.TID 0000.0001) %MON exf_evap_sd                  =   2.8802382785740E-08
(PID.TID 0000.0001) %MON exf_evap_del2                =   7.3421950535552E-11
(PID.TID 0000.0001) %MON exf_precip_max               =   3.9829699289839E-06
(PID.TID 0000.0001) %MON exf_precip_min               =  -1.5575567206364E-08
(PID.TID 0000.0001) %MON exf_precip_mean              =   3.7813890508617E-08
(PID.TID 0000.0001) %MON exf_precip_sd                =   8.5303915801358E-08
(PID.TID 0000.0001) %MON exf_precip_del2              =   2.4244411513282E-10
(PID.TID 0000.0001) %MON exf_swflux_max               =   2.5247574707824E+01
(PID.TID 0000.0001) %MON exf_swflux_min               =  -8.2412835246259E+02
(PID.TID 0000.0001) %MON exf_swflux_mean              =  -1.7969213694591E+02
(PID.TID 0000.0001) %MON exf_swflux_sd                =   2.0714781621516E+02
(PID.TID 0000.0001) %MON exf_swflux_del2              =   3.6828720396625E-01
(PID.TID 0000.0001) %MON exf_swdown_max               =   8.8876213582357E+02
(PID.TID 0000.0001) %MON exf_swdown_min               =  -3.4001923243205E+01
(PID.TID 0000.0001) %MON exf_swdown_mean              =   1.9489953515882E+02
(PID.TID 0000.0001) %MON exf_swdown_sd                =   2.2408000623387E+02
(PID.TID 0000.0001) %MON exf_swdown_del2              =   4.0003691473373E-01
(PID.TID 0000.0001) %MON exf_lwdown_max               =   4.6143625386556E+02
(PID.TID 0000.0001) %MON exf_lwdown_min               =   7.5881145477295E+01
(PID.TID 0000.0001) %MON exf_lwdown_mean              =   3.6240056834737E+02
(PID.TID 0000.0001) %MON exf_lwdown_sd                =   6.5812847948484E+01
(PID.TID 0000.0001) %MON exf_lwdown_del2              =   4.8438205117676E-01
(PID.TID 0000.0001) %MON exf_runoff_max               =   2.1001637264817E-06
(PID.TID 0000.0001) %MON exf_runoff_min               =   0.0000000000000E+00
(PID.TID 0000.0001) %MON exf_runoff_mean              =   3.0243457252163E-09
(PID.TID 0000.0001) %MON exf_runoff_sd                =   2.4553425605540E-08
(PID.TID 0000.0001) %MON exf_runoff_del2              =   1.8337623539559E-11
(PID.TID 0000.0001) // =======================================================
(PID.TID 0000.0001) // End MONITOR EXF statistics
(PID.TID 0000.0001) // =======================================================
 SEAICE_LSR: Residual Initial ipass,Uice,Vice=    1  1.33158607E-01  1.63164237E-01
 SEAICE_LSR: Residual FrDrift U_fd,V_fd=  8.59373324E+01  8.16737403E+01
 SEAICE_LSR (ipass=   1) iters,dU,Resid=   152  1.96272970E-04  1.36700991E-03
 SEAICE_LSR (ipass=   1) iters,dV,Resid=   152  2.93648037E-05  1.88369929E-03
 SEAICE_LSR: Residual Initial ipass,Uice,Vice=    2  3.53271976E-01  2.38828381E-01
 SEAICE_LSR: Residual FrDrift U_fd,V_fd=  8.54006808E+01  8.14355585E+01
 SEAICE_LSR (ipass=   2) iters,dU,Resid=    44  1.90294252E-04  1.94542659E-03
 SEAICE_LSR (ipass=   2) iters,dV,Resid=    44  1.95419095E-04  1.75742337E-03
 cg2d: Sum(rhs),rhsMax =   4.97107612391985E+00  3.98068611053592E-01
 cg2d: Sum(rhs),rhsMax =   4.99944465615773E+00  3.91711599357145E-01
(PID.TID 0000.0001)      cg2d_init_res =   3.65162312188492E-01
(PID.TID 0000.0001)      cg2d_iters(min,last) =      -1      92
(PID.TID 0000.0001)      cg2d_last_res =   7.04591382144733E-06
(PID.TID 0000.0001) // =======================================================
(PID.TID 0000.0001) // Begin MONITOR dynamic field statistics
(PID.TID 0000.0001) // =======================================================
(PID.TID 0000.0001) %MON time_tsnumber                =                    52
(PID.TID 0000.0001) %MON time_secondsf                =   1.8720000000000E+05
(PID.TID 0000.0001) %MON dynstat_eta_max              =   1.7332373315970E+00
(PID.TID 0000.0001) %MON dynstat_eta_min              =  -4.0271958124839E+00
(PID.TID 0000.0001) %MON dynstat_eta_mean             =  -2.5303744262568E-03
(PID.TID 0000.0001) %MON dynstat_eta_sd               =   7.4164549273032E-01
(PID.TID 0000.0001) %MON dynstat_eta_del2             =   2.8575065701659E-04
(PID.TID 0000.0001) %MON dynstat_uvel_max             =   1.1892796795906E+00
(PID.TID 0000.0001) %MON dynstat_uvel_min             =  -7.9002839717906E-01
(PID.TID 0000.0001) %MON dynstat_uvel_mean            =   1.4016657689177E-03
(PID.TID 0000.0001) %MON dynstat_uvel_sd              =   2.1645562441209E-02
(PID.TID 0000.0001) %MON dynstat_uvel_del2            =   1.3412903599756E-05
(PID.TID 0000.0001) %MON dynstat_vvel_max             =   1.2658701606009E+00
(PID.TID 0000.0001) %MON dynstat_vvel_min             =  -9.2735440347632E-01
(PID.TID 0000.0001) %MON dynstat_vvel_mean            =   1.2323844767741E-03
(PID.TID 0000.0001) %MON dynstat_vvel_sd              =   2.4004737157959E-02
(PID.TID 0000.0001) %MON dynstat_vvel_del2            =   1.3713744510018E-05
(PID.TID 0000.0001) %MON dynstat_wvel_max             =   7.1990867093874E-04
(PID.TID 0000.0001) %MON dynstat_wvel_min             =  -1.4839281834391E-03
(PID.TID 0000.0001) %MON dynstat_wvel_mean            =  -2.8506007795233E-09
(PID.TID 0000.0001) %MON dynstat_wvel_sd              =   2.6876149576388E-05
(PID.TID 0000.0001) %MON dynstat_wvel_del2            =   2.6757718024134E-08
(PID.TID 0000.0001) %MON dynstat_theta_max            =   3.2670138770070E+01
(PID.TID 0000.0001) %MON dynstat_theta_min            =  -2.0418380637203E+00
(PID.TID 0000.0001) %MON dynstat_theta_mean           =   3.5906830495898E+00
(PID.TID 0000.0001) %MON dynstat_theta_sd             =   4.4363833769766E+00
(PID.TID 0000.0001) %MON dynstat_theta_del2           =   1.0521259052196E-04
(PID.TID 0000.0001) %MON dynstat_salt_max             =   4.0711421498239E+01
(PID.TID 0000.0001) %MON dynstat_salt_min             =   1.7527664117086E+01
(PID.TID 0000.0001) %MON dynstat_salt_mean            =   3.4725697916750E+01
(PID.TID 0000.0001) %MON dynstat_salt_sd              =   3.7885118751605E-01
(PID.TID 0000.0001) %MON dynstat_salt_del2            =   2.5577972119343E-05
(PID.TID 0000.0001) %MON dynstat_sst_max              =   3.2670109173928E+01
(PID.TID 0000.0001) %MON dynstat_sst_min              =  -1.9609828664991E+00
(PID.TID 0000.0001) %MON dynstat_sst_mean             =   1.8523651765629E+01
(PID.TID 0000.0001) %MON dynstat_sst_sd               =   1.0061184898201E+01
(PID.TID 0000.0001) %MON dynstat_sst_del2             =   8.7946907580383E-04
(PID.TID 0000.0001) %MON dynstat_sss_max              =   3.9717930577990E+01
(PID.TID 0000.0001) %MON dynstat_sss_min              =   1.7527664117086E+01
(PID.TID 0000.0001) %MON dynstat_sss_mean             =   3.4722787925620E+01
(PID.TID 0000.0001) %MON dynstat_sss_sd               =   1.2182591567788E+00
(PID.TID 0000.0001) %MON dynstat_sss_del2             =   3.8943187043348E-04
(PID.TID 0000.0001) %MON forcing_qnet_max             =   9.2066288174605E+02
(PID.TID 0000.0001) %MON forcing_qnet_min             =  -8.1995326143828E+02
(PID.TID 0000.0001) %MON forcing_qnet_mean            =  -3.5906317688484E+00
(PID.TID 0000.0001) %MON forcing_qnet_sd              =   2.6046499605584E+02
(PID.TID 0000.0001) %MON forcing_qnet_del2            =   1.5956334727838E-01
(PID.TID 0000.0001) %MON forcing_qsw_max              =   2.8359174475326E+01
(PID.TID 0000.0001) %MON forcing_qsw_min              =  -9.3479863508235E+02
(PID.TID 0000.0001) %MON forcing_qsw_mean             =  -1.8080985984722E+02
(PID.TID 0000.0001) %MON forcing_qsw_sd               =   2.3704864409564E+02
(PID.TID 0000.0001) %MON forcing_qsw_del2             =   8.9513944451518E-02
(PID.TID 0000.0001) %MON forcing_empmr_max            =   1.5197315576135E-03
(PID.TID 0000.0001) %MON forcing_empmr_min            =  -3.7703681866315E-03
(PID.TID 0000.0001) %MON forcing_empmr_mean           =   4.1040511502781E-06
(PID.TID 0000.0001) %MON forcing_empmr_sd             =   1.1092115091125E-04
(PID.TID 0000.0001) %MON forcing_empmr_del2           =   4.5374934617239E-07
(PID.TID 0000.0001) %MON forcing_fu_max               =   9.6068274974823E-01
(PID.TID 0000.0001) %MON forcing_fu_min               =  -1.6990549014718E+00
(PID.TID 0000.0001) %MON forcing_fu_mean              =   1.2099531493277E-02
(PID.TID 0000.0001) %MON forcing_fu_sd                =   1.1748597412315E-01
(PID.TID 0000.0001) %MON forcing_fu_del2              =   1.0336280327629E-04
(PID.TID 0000.0001) %MON forcing_fv_max               =   1.1169497354073E+00
(PID.TID 0000.0001) %MON forcing_fv_min               =  -1.2523014339274E+00
(PID.TID 0000.0001) %MON forcing_fv_mean              =   1.9964486738562E-04
(PID.TID 0000.0001) %MON forcing_fv_sd                =   1.1426737737525E-01
(PID.TID 0000.0001) %MON forcing_fv_del2              =   1.0437223377401E-04
(PID.TID 0000.0001) %MON trAdv_CFL_u_max              =   7.4346084629211E-02
(PID.TID 0000.0001) %MON trAdv_CFL_v_max              =   5.6324050468858E-02
(PID.TID 0000.0001) %MON trAdv_CFL_w_max              =   2.0696870528817E-01
(PID.TID 0000.0001) %MON advcfl_uvel_max              =   7.1261781774749E-02
(PID.TID 0000.0001) %MON advcfl_vvel_max              =   5.2021742295888E-02
(PID.TID 0000.0001) %MON advcfl_wvel_max              =   2.0758650183461E-01
(PID.TID 0000.0001) %MON advcfl_W_hf_max              =   2.1768718382308E-01
(PID.TID 0000.0001) %MON pe_b_mean                    =   4.2649537647682E-04
(PID.TID 0000.0001) %MON ke_max                       =   8.1451264635610E-01
(PID.TID 0000.0001) %MON ke_mean                      =   5.0546029961543E-04
(PID.TID 0000.0001) %MON ke_vol                       =   1.3349969761706E+18
(PID.TID 0000.0001) %MON vort_r_min                   =  -2.8965805487532E-05
(PID.TID 0000.0001) %MON vort_r_max                   =   2.8950201227770E-05
(PID.TID 0000.0001) %MON vort_a_mean                  =  -1.9727864647440E-05
(PID.TID 0000.0001) %MON vort_a_sd                    =   7.4543287115932E-05
(PID.TID 0000.0001) %MON vort_p_mean                  =  -2.1760540119667E-05
(PID.TID 0000.0001) %MON vort_p_sd                    =   9.7243653072392E-05
(PID.TID 0000.0001) %MON surfExpan_theta_mean         =  -4.8653642256657E-08
(PID.TID 0000.0001) %MON surfExpan_salt_mean          =   3.3785128513268E-08
(PID.TID 0000.0001) // =======================================================
(PID.TID 0000.0001) // End MONITOR dynamic field statistics
(PID.TID 0000.0001) // =======================================================
(PID.TID 0000.0001) // =======================================================
(PID.TID 0000.0001) // Begin MONITOR SEAICE statistics
(PID.TID 0000.0001) // =======================================================
(PID.TID 0000.0001) %MON seaice_tsnumber              =                    52
(PID.TID 0000.0001) %MON seaice_time_sec              =   1.8720000000000E+05
(PID.TID 0000.0001) %MON seaice_uice_max              =   4.0000000000000E-01
(PID.TID 0000.0001) %MON seaice_uice_min              =  -4.0000000000000E-01
(PID.TID 0000.0001) %MON seaice_uice_mean             =   7.4062535395660E-03
(PID.TID 0000.0001) %MON seaice_uice_sd               =   1.9329059142571E-01
(PID.TID 0000.0001) %MON seaice_uice_del2             =   1.8693476308055E-04
(PID.TID 0000.0001) %MON seaice_vice_max              =   4.0000000000000E-01
(PID.TID 0000.0001) %MON seaice_vice_min              =  -4.0000000000000E-01
(PID.TID 0000.0001) %MON seaice_vice_mean             =  -6.0285470679981E-03
(PID.TID 0000.0001) %MON seaice_vice_sd               =   2.0068825646022E-01
(PID.TID 0000.0001) %MON seaice_vice_del2             =   2.0413235774865E-04
(PID.TID 0000.0001) %MON seaice_area_max              =   9.5000000000000E-01
(PID.TID 0000.0001) %MON seaice_area_min              =   0.0000000000000E+00
(PID.TID 0000.0001) %MON seaice_area_mean             =   3.8391785005570E-02
(PID.TID 0000.0001) %MON seaice_area_sd               =   1.7754363079741E-01
(PID.TID 0000.0001) %MON seaice_area_del2             =   2.7224778959787E-04
(PID.TID 0000.0001) %MON seaice_heff_max              =   3.9784375518740E+00
(PID.TID 0000.0001) %MON seaice_heff_min              =   0.0000000000000E+00
(PID.TID 0000.0001) %MON seaice_heff_mean             =   5.3597460268184E-02
(PID.TID 0000.0001) %MON seaice_heff_sd               =   3.0791303120847E-01
(PID.TID 0000.0001) %MON seaice_heff_del2             =   2.9686717723790E-04
(PID.TID 0000.0001) %MON seaice_hsnow_max             =   9.6476973799711E-01
(PID.TID 0000.0001) %MON seaice_hsnow_min             =  -3.4901330058430E-05
(PID.TID 0000.0001) %MON seaice_hsnow_mean            =   5.2126611470676E-03
(PID.TID 0000.0001) %MON seaice_hsnow_sd              =   3.1417026158326E-02
(PID.TID 0000.0001) %MON seaice_hsnow_del2            =   5.3201514167162E-05
(PID.TID 0000.0001) // =======================================================
(PID.TID 0000.0001) // End MONITOR SEAICE statistics
(PID.TID 0000.0001) // =======================================================
(PID.TID 0000.0001) // =======================================================
(PID.TID 0000.0001) // Begin MONITOR EXF statistics
(PID.TID 0000.0001) // =======================================================
(PID.TID 0000.0001) %MON exf_tsnumber                 =                    52
(PID.TID 0000.0001) %MON exf_time_sec                 =   1.8720000000000E+05
(PID.TID 0000.0001) %MON exf_ustress_max              =   1.1537038700054E+00
(PID.TID 0000.0001) %MON exf_ustress_min              =  -1.3612485440244E+00
(PID.TID 0000.0001) %MON exf_ustress_mean             =   1.2520382355967E-02
(PID.TID 0000.0001) %MON exf_ustress_sd               =   1.1014250310317E-01
(PID.TID 0000.0001) %MON exf_ustress_del2             =   9.9194451439979E-05
(PID.TID 0000.0001) %MON exf_vstress_max              =   7.7676477034887E-01
(PID.TID 0000.0001) %MON exf_vstress_min              =  -8.0160911702416E-01
(PID.TID 0000.0001) %MON exf_vstress_mean             =  -3.7646426750189E-04
(PID.TID 0000.0001) %MON exf_vstress_sd               =   1.0683586613133E-01
(PID.TID 0000.0001) %MON exf_vstress_del2             =   9.0039894665282E-05
(PID.TID 0000.0001) %MON exf_hflux_max                =   1.2176339738277E+03
(PID.TID 0000.0001) %MON exf_hflux_min                =  -7.1762150619312E+02
(PID.TID 0000.0001) %MON exf_hflux_mean               =   6.7428500222621E+00
(PID.TID 0000.0001) %MON exf_hflux_sd                 =   2.5405312644623E+02
(PID.TID 0000.0001) %MON exf_hflux_del2               =   4.4943799152785E-01
(PID.TID 0000.0001) %MON exf_sflux_max                =   2.3130519316492E-07
(PID.TID 0000.0001) %MON exf_sflux_min                =  -3.1824670313553E-06
(PID.TID 0000.0001) %MON exf_sflux_mean               =   4.6494944711371E-09
(PID.TID 0000.0001) %MON exf_sflux_sd                 =   9.1283752173842E-08
(PID.TID 0000.0001) %MON exf_sflux_del2               =   2.3375854590832E-10
(PID.TID 0000.0001) %MON exf_wspeed_max               =   2.2606004714966E+01
(PID.TID 0000.0001) %MON exf_wspeed_min               =   3.7526941796144E-01
(PID.TID 0000.0001) %MON exf_wspeed_mean              =   6.8848119373904E+00
(PID.TID 0000.0001) %MON exf_wspeed_sd                =   3.1476260109311E+00
(PID.TID 0000.0001) %MON exf_wspeed_del2              =   1.2067771350492E-02
(PID.TID 0000.0001) %MON exf_atemp_max                =   3.0492446365356E+02
(PID.TID 0000.0001) %MON exf_atemp_min                =   2.2577211926778E+02
(PID.TID 0000.0001) %MON exf_atemp_mean               =   2.8909671474824E+02
(PID.TID 0000.0001) %MON exf_atemp_sd                 =   1.2355896535459E+01
(PID.TID 0000.0001) %MON exf_atemp_del2               =   2.6482969373147E-02
(PID.TID 0000.0001) %MON exf_aqh_max                  =   2.1821730149289E-02
(PID.TID 0000.0001) %MON exf_aqh_min                  =   6.7232831497677E-05
(PID.TID 0000.0001) %MON exf_aqh_mean                 =   1.0876944284000E-02
(PID.TID 0000.0001) %MON exf_aqh_sd                   =   5.6269479097123E-03
(PID.TID 0000.0001) %MON exf_aqh_del2                 =   1.4570939893901E-05
(PID.TID 0000.0001) %MON exf_lwflux_max               =   2.2341561931567E+02
(PID.TID 0000.0001) %MON exf_lwflux_min               =  -2.1800093936909E+01
(PID.TID 0000.0001) %MON exf_lwflux_mean              =   4.9308930024136E+01
(PID.TID 0000.0001) %MON exf_lwflux_sd                =   2.9486581862390E+01
(PID.TID 0000.0001) %MON exf_lwflux_del2              =   1.0191444626346E-01
(PID.TID 0000.0001) %MON exf_evap_max                 =   2.3618330063265E-07
(PID.TID 0000.0001) %MON exf_evap_min                 =  -2.9236860228473E-08
(PID.TID 0000.0001) %MON exf_evap_mean                =   4.5544841818730E-08
(PID.TID 0000.0001) %MON exf_evap_sd                  =   2.8937604460560E-08
(PID.TID 0000.0001) %MON exf_evap_del2                =   7.3924595158273E-11
(PID.TID 0000.0001) %MON exf_precip_max               =   3.2154984902869E-06
(PID.TID 0000.0001) %MON exf_precip_min               =  -1.5774439828438E-08
(PID.TID 0000.0001) %MON exf_precip_mean              =   3.7871906048003E-08
(PID.TID 0000.0001) %MON exf_precip_sd                =   8.4041864861060E-08
(PID.TID 0000.0001) %MON exf_precip_del2              =   2.3096018572796E-10
(PID.TID 0000.0001) %MON exf_swflux_max               =   2.6836174555479E+01
(PID.TID 0000.0001) %MON exf_swflux_min               =  -8.2195790552021E+02
(PID.TID 0000.0001) %MON exf_swflux_mean              =  -1.8665241734227E+02
(PID.TID 0000.0001) %MON exf_swflux_sd                =   2.0421446090479E+02
(PID.TID 0000.0001) %MON exf_swflux_del2              =   3.7209663043826E-01
(PID.TID 0000.0001) %MON exf_swdown_max               =   8.8642184448242E+02
(PID.TID 0000.0001) %MON exf_swdown_min               =  -3.4043077468872E+01
(PID.TID 0000.0001) %MON exf_swdown_mean              =   2.0250631515003E+02
(PID.TID 0000.0001) %MON exf_swdown_sd                =   2.2083608280416E+02
(PID.TID 0000.0001) %MON exf_swdown_del2              =   4.0427238409444E-01
(PID.TID 0000.0001) %MON exf_lwdown_max               =   4.6178893025716E+02
(PID.TID 0000.0001) %MON exf_lwdown_min               =   7.6348401387533E+01
(PID.TID 0000.0001) %MON exf_lwdown_mean              =   3.6241609757185E+02
(PID.TID 0000.0001) %MON exf_lwdown_sd                =   6.5813612059020E+01
(PID.TID 0000.0001) %MON exf_lwdown_del2              =   4.8449392610947E-01
(PID.TID 0000.0001) %MON exf_runoff_max               =   2.1033178852796E-06
(PID.TID 0000.0001) %MON exf_runoff_min               =   0.0000000000000E+00
(PID.TID 0000.0001) %MON exf_runoff_mean              =   3.0234412995901E-09
(PID.TID 0000.0001) %MON exf_runoff_sd                =   2.4583046286701E-08
(PID.TID 0000.0001) %MON exf_runoff_del2              =   1.8348524357710E-11
(PID.TID 0000.0001) // =======================================================
(PID.TID 0000.0001) // End MONITOR EXF statistics
(PID.TID 0000.0001) // =======================================================
 SEAICE_LSR: Residual Initial ipass,Uice,Vice=    1  1.35371742E-01  1.63635920E-01
 SEAICE_LSR: Residual FrDrift U_fd,V_fd=  8.77722504E+01  8.26209502E+01
 SEAICE_LSR (ipass=   1) iters,dU,Resid=   130  1.96268879E-04  1.44422637E-03
 SEAICE_LSR (ipass=   1) iters,dV,Resid=   130  7.43811631E-05  2.21271514E-03
 SEAICE_LSR: Residual Initial ipass,Uice,Vice=    2  5.11256846E-01  1.86809003E-01
 SEAICE_LSR: Residual FrDrift U_fd,V_fd=  8.64676198E+01  8.24468121E+01
 SEAICE_LSR (ipass=   2) iters,dU,Resid=    54  4.47199593E-05  1.87171794E-03
 SEAICE_LSR (ipass=   2) iters,dV,Resid=    54  1.94948396E-04  1.95312040E-03
 cg2d: Sum(rhs),rhsMax =   5.02674776966906E+00  3.85642592696709E-01
 cg2d: Sum(rhs),rhsMax =   5.05387890965827E+00  3.90088770846596E-01
(PID.TID 0000.0001)      cg2d_init_res =   3.71772821716019E-01
(PID.TID 0000.0001)      cg2d_iters(min,last) =      -1      93
(PID.TID 0000.0001)      cg2d_last_res =   6.81773794505291E-06
(PID.TID 0000.0001) // =======================================================
(PID.TID 0000.0001) // Begin MONITOR dynamic field statistics
(PID.TID 0000.0001) // =======================================================
(PID.TID 0000.0001) %MON time_tsnumber                =                    54
(PID.TID 0000.0001) %MON time_secondsf                =   1.9440000000000E+05
(PID.TID 0000.0001) %MON dynstat_eta_max              =   1.7441913943132E+00
(PID.TID 0000.0001) %MON dynstat_eta_min              =  -4.0287993919169E+00
(PID.TID 0000.0001) %MON dynstat_eta_mean             =  -2.5579252948921E-03
(PID.TID 0000.0001) %MON dynstat_eta_sd               =   7.4157265858132E-01
(PID.TID 0000.0001) %MON dynstat_eta_del2             =   2.8532260543322E-04
(PID.TID 0000.0001) %MON dynstat_uvel_max             =   1.1405640069837E+00
(PID.TID 0000.0001) %MON dynstat_uvel_min             =  -7.9710757545229E-01
(PID.TID 0000.0001) %MON dynstat_uvel_mean            =   1.3933755068504E-03
(PID.TID 0000.0001) %MON dynstat_uvel_sd              =   2.1620115716019E-02
(PID.TID 0000.0001) %MON dynstat_uvel_del2            =   1.3368133350647E-05
(PID.TID 0000.0001) %MON dynstat_vvel_max             =   1.2780537549219E+00
(PID.TID 0000.0001) %MON dynstat_vvel_min             =  -9.3661783273875E-01
(PID.TID 0000.0001) %MON dynstat_vvel_mean            =   1.2281123449409E-03
(PID.TID 0000.0001) %MON dynstat_vvel_sd              =   2.4011331607653E-02
(PID.TID 0000.0001) %MON dynstat_vvel_del2            =   1.3649962484099E-05
(PID.TID 0000.0001) %MON dynstat_wvel_max             =   7.0168791802247E-04
(PID.TID 0000.0001) %MON dynstat_wvel_min             =  -1.3597874582457E-03
(PID.TID 0000.0001) %MON dynstat_wvel_mean            =  -2.8834154695173E-09
(PID.TID 0000.0001) %MON dynstat_wvel_sd              =   2.6620970703398E-05
(PID.TID 0000.0001) %MON dynstat_wvel_del2            =   2.6395584641951E-08
(PID.TID 0000.0001) %MON dynstat_theta_max            =   3.2653855880155E+01
(PID.TID 0000.0001) %MON dynstat_theta_min            =  -2.0417958121421E+00
(PID.TID 0000.0001) %MON dynstat_theta_mean           =   3.5906878404368E+00
(PID.TID 0000.0001) %MON dynstat_theta_sd             =   4.4363661902429E+00
(PID.TID 0000.0001) %MON dynstat_theta_del2           =   1.0518619442072E-04
(PID.TID 0000.0001) %MON dynstat_salt_max             =   4.0711418234770E+01
(PID.TID 0000.0001) %MON dynstat_salt_min             =   1.7529350093735E+01
(PID.TID 0000.0001) %MON dynstat_salt_mean            =   3.4725698170268E+01
(PID.TID 0000.0001) %MON dynstat_salt_sd              =   3.7884957473731E-01
(PID.TID 0000.0001) %MON dynstat_salt_del2            =   2.5567879185028E-05
(PID.TID 0000.0001) %MON dynstat_sst_max              =   3.2653828423112E+01
(PID.TID 0000.0001) %MON dynstat_sst_min              =  -1.9609933669000E+00
(PID.TID 0000.0001) %MON dynstat_sst_mean             =   1.8524175142598E+01
(PID.TID 0000.0001) %MON dynstat_sst_sd               =   1.0059124749551E+01
(PID.TID 0000.0001) %MON dynstat_sst_del2             =   8.8066389454137E-04
(PID.TID 0000.0001) %MON dynstat_sss_max              =   3.9719868816321E+01
(PID.TID 0000.0001) %MON dynstat_sss_min              =   1.7529350093735E+01
(PID.TID 0000.0001) %MON dynstat_sss_mean             =   3.4722908876103E+01
(PID.TID 0000.0001) %MON dynstat_sss_sd               =   1.2181674161012E+00
(PID.TID 0000.0001) %MON dynstat_sss_del2             =   3.8961627607250E-04
(PID.TID 0000.0001) %MON forcing_qnet_max             =   8.9795832413357E+02
(PID.TID 0000.0001) %MON forcing_qnet_min             =  -6.7934440826016E+02
(PID.TID 0000.0001) %MON forcing_qnet_mean            =  -1.2630536149789E+01
(PID.TID 0000.0001) %MON forcing_qnet_sd              =   2.1331004018497E+02
(PID.TID 0000.0001) %MON forcing_qnet_del2            =   1.5034113744976E-01
(PID.TID 0000.0001) %MON forcing_qsw_max              =   2.5553390414792E+01
(PID.TID 0000.0001) %MON forcing_qsw_min              =  -7.6179070891762E+02
(PID.TID 0000.0001) %MON forcing_qsw_mean             =  -1.8967412759114E+02
(PID.TID 0000.0001) %MON forcing_qsw_sd               =   1.8202567942153E+02
(PID.TID 0000.0001) %MON forcing_qsw_del2             =   7.7534776557227E-02
(PID.TID 0000.0001) %MON forcing_empmr_max            =   1.5223323641645E-03
(PID.TID 0000.0001) %MON forcing_empmr_min            =  -2.5940600384208E-03
(PID.TID 0000.0001) %MON forcing_empmr_mean           =   3.9250386783639E-06
(PID.TID 0000.0001) %MON forcing_empmr_sd             =   1.0459807472202E-04
(PID.TID 0000.0001) %MON forcing_empmr_del2           =   4.3746032408228E-07
(PID.TID 0000.0001) %MON forcing_fu_max               =   8.3930824200313E-01
(PID.TID 0000.0001) %MON forcing_fu_min               =  -1.8020876668389E+00
(PID.TID 0000.0001) %MON forcing_fu_mean              =   1.1487378229456E-02
(PID.TID 0000.0001) %MON forcing_fu_sd                =   1.1421016227171E-01
(PID.TID 0000.0001) %MON forcing_fu_del2              =   9.5666191387106E-05
(PID.TID 0000.0001) %MON forcing_fv_max               =   1.0334393353081E+00
(PID.TID 0000.0001) %MON forcing_fv_min               =  -1.2661492354353E+00
(PID.TID 0000.0001) %MON forcing_fv_mean              =   4.4691848838820E-05
(PID.TID 0000.0001) %MON forcing_fv_sd                =   1.1109173719314E-01
(PID.TID 0000.0001) %MON forcing_fv_del2              =   9.7073694689090E-05
(PID.TID 0000.0001) %MON trAdv_CFL_u_max              =   7.1380346345315E-02
(PID.TID 0000.0001) %MON trAdv_CFL_v_max              =   5.5907946093425E-02
(PID.TID 0000.0001) %MON trAdv_CFL_w_max              =   2.0424367914080E-01
(PID.TID 0000.0001) %MON advcfl_uvel_max              =   6.8342732799224E-02
(PID.TID 0000.0001) %MON advcfl_vvel_max              =   5.4101348770412E-02
(PID.TID 0000.0001) %MON advcfl_wvel_max              =   2.0498937319483E-01
(PID.TID 0000.0001) %MON advcfl_W_hf_max              =   2.1496207753067E-01
(PID.TID 0000.0001) %MON pe_b_mean                    =   4.2603217267600E-04
(PID.TID 0000.0001) %MON ke_max                       =   8.3028749502764E-01
(PID.TID 0000.0001) %MON ke_mean                      =   5.0506598426837E-04
(PID.TID 0000.0001) %MON ke_vol                       =   1.3349969660828E+18
(PID.TID 0000.0001) %MON vort_r_min                   =  -2.8429606839877E-05
(PID.TID 0000.0001) %MON vort_r_max                   =   2.8378531454415E-05
(PID.TID 0000.0001) %MON vort_a_mean                  =  -1.9727864647440E-05
(PID.TID 0000.0001) %MON vort_a_sd                    =   7.4543282865140E-05
(PID.TID 0000.0001) %MON vort_p_mean                  =  -2.1760540190908E-05
(PID.TID 0000.0001) %MON vort_p_sd                    =   9.7243851271558E-05
(PID.TID 0000.0001) %MON surfExpan_theta_mean         =  -3.9730729909338E-08
(PID.TID 0000.0001) %MON surfExpan_salt_mean          =   3.1384661208010E-08
(PID.TID 0000.0001) // =======================================================
(PID.TID 0000.0001) // End MONITOR dynamic field statistics
(PID.TID 0000.0001) // =======================================================
(PID.TID 0000.0001) // =======================================================
(PID.TID 0000.0001) // Begin MONITOR SEAICE statistics
(PID.TID 0000.0001) // =======================================================
(PID.TID 0000.0001) %MON seaice_tsnumber              =                    54
(PID.TID 0000.0001) %MON seaice_time_sec              =   1.9440000000000E+05
(PID.TID 0000.0001) %MON seaice_uice_max              =   4.0000000000000E-01
(PID.TID 0000.0001) %MON seaice_uice_min              =  -4.0000000000000E-01
(PID.TID 0000.0001) %MON seaice_uice_mean             =   7.0946558155906E-03
(PID.TID 0000.0001) %MON seaice_uice_sd               =   1.9378250400884E-01
(PID.TID 0000.0001) %MON seaice_uice_del2             =   1.8379862206006E-04
(PID.TID 0000.0001) %MON seaice_vice_max              =   4.0000000000000E-01
(PID.TID 0000.0001) %MON seaice_vice_min              =  -4.0000000000000E-01
(PID.TID 0000.0001) %MON seaice_vice_mean             =  -6.1813100657659E-03
(PID.TID 0000.0001) %MON seaice_vice_sd               =   1.9918674813205E-01
(PID.TID 0000.0001) %MON seaice_vice_del2             =   2.0057805451659E-04
(PID.TID 0000.0001) %MON seaice_area_max              =   9.5000000000000E-01
(PID.TID 0000.0001) %MON seaice_area_min              =   0.0000000000000E+00
(PID.TID 0000.0001) %MON seaice_area_mean             =   3.8359126745458E-02
(PID.TID 0000.0001) %MON seaice_area_sd               =   1.7746302481740E-01
(PID.TID 0000.0001) %MON seaice_area_del2             =   2.6897496980250E-04
(PID.TID 0000.0001) %MON seaice_heff_max              =   3.9862491980611E+00
(PID.TID 0000.0001) %MON seaice_heff_min              =   0.0000000000000E+00
(PID.TID 0000.0001) %MON seaice_heff_mean             =   5.3603093172062E-02
(PID.TID 0000.0001) %MON seaice_heff_sd               =   3.0806215148981E-01
(PID.TID 0000.0001) %MON seaice_heff_del2             =   2.9637251418611E-04
(PID.TID 0000.0001) %MON seaice_hsnow_max             =   9.6399705187045E-01
(PID.TID 0000.0001) %MON seaice_hsnow_min             =  -3.5114484814807E-05
(PID.TID 0000.0001) %MON seaice_hsnow_mean            =   5.2103475870983E-03
(PID.TID 0000.0001) %MON seaice_hsnow_sd              =   3.1417400468717E-02
(PID.TID 0000.0001) %MON seaice_hsnow_del2            =   5.3209742226088E-05
(PID.TID 0000.0001) // =======================================================
(PID.TID 0000.0001) // End MONITOR SEAICE statistics
(PID.TID 0000.0001) // =======================================================
(PID.TID 0000.0001) // =======================================================
(PID.TID 0000.0001) // Begin MONITOR EXF statistics
(PID.TID 0000.0001) // =======================================================
(PID.TID 0000.0001) %MON exf_tsnumber                 =                    54
(PID.TID 0000.0001) %MON exf_time_sec                 =   1.9440000000000E+05
(PID.TID 0000.0001) %MON exf_ustress_max              =   1.0733140707016E+00
(PID.TID 0000.0001) %MON exf_ustress_min              =  -1.3620772031922E+00
(PID.TID 0000.0001) %MON exf_ustress_mean             =   1.1952122427185E-02
(PID.TID 0000.0001) %MON exf_ustress_sd               =   1.0899495949793E-01
(PID.TID 0000.0001) %MON exf_ustress_del2             =   9.3889986063138E-05
(PID.TID 0000.0001) %MON exf_vstress_max              =   7.9259735345838E-01
(PID.TID 0000.0001) %MON exf_vstress_min              =  -8.8866597414017E-01
(PID.TID 0000.0001) %MON exf_vstress_mean             =  -5.1658332083717E-04
(PID.TID 0000.0001) %MON exf_vstress_sd               =   1.0541245651476E-01
(PID.TID 0000.0001) %MON exf_vstress_del2             =   8.4513459559319E-05
(PID.TID 0000.0001) %MON exf_hflux_max                =   1.1147612231392E+03
(PID.TID 0000.0001) %MON exf_hflux_min                =  -6.4418479786016E+02
(PID.TID 0000.0001) %MON exf_hflux_mean               =  -2.1665508663596E+00
(PID.TID 0000.0001) %MON exf_hflux_sd                 =   2.3484328222571E+02
(PID.TID 0000.0001) %MON exf_hflux_del2               =   4.3504691728391E-01
(PID.TID 0000.0001) %MON exf_sflux_max                =   2.3182346126731E-07
(PID.TID 0000.0001) %MON exf_sflux_min                =  -2.1371512675676E-06
(PID.TID 0000.0001) %MON exf_sflux_mean               =   4.5521186160770E-09
(PID.TID 0000.0001) %MON exf_sflux_sd                 =   8.7607716334585E-08
(PID.TID 0000.0001) %MON exf_sflux_del2               =   2.0833592978349E-10
(PID.TID 0000.0001) %MON exf_wspeed_max               =   2.1546339035034E+01
(PID.TID 0000.0001) %MON exf_wspeed_min               =   3.7999725341797E-01
(PID.TID 0000.0001) %MON exf_wspeed_mean              =   6.8694767534734E+00
(PID.TID 0000.0001) %MON exf_wspeed_sd                =   3.0868795398176E+00
(PID.TID 0000.0001) %MON exf_wspeed_del2              =   1.1958329631455E-02
(PID.TID 0000.0001) %MON exf_atemp_max                =   3.0477728118896E+02
(PID.TID 0000.0001) %MON exf_atemp_min                =   2.2558586921692E+02
(PID.TID 0000.0001) %MON exf_atemp_mean               =   2.8909016071907E+02
(PID.TID 0000.0001) %MON exf_atemp_sd                 =   1.2363576688356E+01
(PID.TID 0000.0001) %MON exf_atemp_del2               =   2.6456947259053E-02
(PID.TID 0000.0001) %MON exf_aqh_max                  =   2.1703583188355E-02
(PID.TID 0000.0001) %MON exf_aqh_min                  =   6.5661603002809E-05
(PID.TID 0000.0001) %MON exf_aqh_mean                 =   1.0871187041794E-02
(PID.TID 0000.0001) %MON exf_aqh_sd                   =   5.6237946672637E-03
(PID.TID 0000.0001) %MON exf_aqh_del2                 =   1.4534902814937E-05
(PID.TID 0000.0001) %MON exf_lwflux_max               =   2.2232869569741E+02
(PID.TID 0000.0001) %MON exf_lwflux_min               =  -2.1240166073238E+01
(PID.TID 0000.0001) %MON exf_lwflux_mean              =   4.9110991779492E+01
(PID.TID 0000.0001) %MON exf_lwflux_sd                =   2.9190724597530E+01
(PID.TID 0000.0001) %MON exf_lwflux_del2              =   1.0126237929824E-01
(PID.TID 0000.0001) %MON exf_evap_max                 =   2.3672655493969E-07
(PID.TID 0000.0001) %MON exf_evap_min                 =  -3.0646106352286E-08
(PID.TID 0000.0001) %MON exf_evap_mean                =   4.5557882450931E-08
(PID.TID 0000.0001) %MON exf_evap_sd                  =   2.8613501917924E-08
(PID.TID 0000.0001) %MON exf_evap_del2                =   7.3913531043292E-11
(PID.TID 0000.0001) %MON exf_precip_max               =   2.0500710320448E-06
(PID.TID 0000.0001) %MON exf_precip_min               =  -1.5814095810640E-08
(PID.TID 0000.0001) %MON exf_precip_mean              =   3.7983226960890E-08
(PID.TID 0000.0001) %MON exf_precip_sd                =   8.0311788112805E-08
(PID.TID 0000.0001) %MON exf_precip_del2              =   2.0638864115769E-10
(PID.TID 0000.0001) %MON exf_swflux_max               =   2.5445170653323E+01
(PID.TID 0000.0001) %MON exf_swflux_min               =  -7.0162353789754E+02
(PID.TID 0000.0001) %MON exf_swflux_mean              =  -1.9556229621322E+02
(PID.TID 0000.0001) %MON exf_swflux_sd                =   1.7618409910880E+02
(PID.TID 0000.0001) %MON exf_swflux_del2              =   3.6083953826325E-01
(PID.TID 0000.0001) %MON exf_swdown_max               =   7.5665029907227E+02
(PID.TID 0000.0001) %MON exf_swdown_min               =  -3.4123098373413E+01
(PID.TID 0000.0001) %MON exf_swdown_mean              =   2.1214238371913E+02
(PID.TID 0000.0001) %MON exf_swdown_sd                =   1.9027246666261E+02
(PID.TID 0000.0001) %MON exf_swdown_del2              =   3.9190937277117E-01
(PID.TID 0000.0001) %MON exf_lwdown_max               =   4.6097030639648E+02
(PID.TID 0000.0001) %MON exf_lwdown_min               =   7.7468940734863E+01
(PID.TID 0000.0001) %MON exf_lwdown_mean              =   3.6262190353306E+02
(PID.TID 0000.0001) %MON exf_lwdown_sd                =   6.5584268495724E+01
(PID.TID 0000.0001) %MON exf_lwdown_del2              =   4.8452306020151E-01
(PID.TID 0000.0001) %MON exf_runoff_max               =   2.1064720440776E-06
(PID.TID 0000.0001) %MON exf_runoff_min               =   0.0000000000000E+00
(PID.TID 0000.0001) %MON exf_runoff_mean              =   3.0225368739638E-09
(PID.TID 0000.0001) %MON exf_runoff_sd                =   2.4612683921981E-08
(PID.TID 0000.0001) %MON exf_runoff_del2              =   1.8359449405395E-11
(PID.TID 0000.0001) // =======================================================
(PID.TID 0000.0001) // End MONITOR EXF statistics
(PID.TID 0000.0001) // =======================================================
 SEAICE_LSR: Residual Initial ipass,Uice,Vice=    1  1.34616664E-01  1.65081785E-01
 SEAICE_LSR: Residual FrDrift U_fd,V_fd=  8.45564393E+01  8.17680362E+01
 SEAICE_LSR (ipass=   1) iters,dU,Resid=   164  1.94273217E-04  1.53333067E-03
 SEAICE_LSR (ipass=   1) iters,dV,Resid=   164  3.92717459E-05  2.28602792E-03
 SEAICE_LSR: Residual Initial ipass,Uice,Vice=    2  4.93286963E-01  1.73929159E-01
 SEAICE_LSR: Residual FrDrift U_fd,V_fd=  8.35081477E+01  8.16524985E+01
 SEAICE_LSR (ipass=   2) iters,dU,Resid=    66  4.20919210E-05  1.87477185E-03
 SEAICE_LSR (ipass=   2) iters,dV,Resid=    66  1.96159596E-04  2.19075868E-03
 cg2d: Sum(rhs),rhsMax =   5.08118050193819E+00  3.94407191096414E-01
 cg2d: Sum(rhs),rhsMax =   5.10847353897623E+00  3.98216396642239E-01
(PID.TID 0000.0001)      cg2d_init_res =   3.47807665889731E-01
(PID.TID 0000.0001)      cg2d_iters(min,last) =      -1      93
(PID.TID 0000.0001)      cg2d_last_res =   6.74887833728304E-06
(PID.TID 0000.0001) // =======================================================
(PID.TID 0000.0001) // Begin MONITOR dynamic field statistics
(PID.TID 0000.0001) // =======================================================
(PID.TID 0000.0001) %MON time_tsnumber                =                    56
(PID.TID 0000.0001) %MON time_secondsf                =   2.0160000000000E+05
(PID.TID 0000.0001) %MON dynstat_eta_max              =   1.7610888470399E+00
(PID.TID 0000.0001) %MON dynstat_eta_min              =  -4.0321478522023E+00
(PID.TID 0000.0001) %MON dynstat_eta_mean             =  -2.5855573347160E-03
(PID.TID 0000.0001) %MON dynstat_eta_sd               =   7.4150710618551E-01
(PID.TID 0000.0001) %MON dynstat_eta_del2             =   2.8504314065924E-04
(PID.TID 0000.0001) %MON dynstat_uvel_max             =   1.0862400357971E+00
(PID.TID 0000.0001) %MON dynstat_uvel_min             =  -8.0176605691515E-01
(PID.TID 0000.0001) %MON dynstat_uvel_mean            =   1.3866596412742E-03
(PID.TID 0000.0001) %MON dynstat_uvel_sd              =   2.1584907944957E-02
(PID.TID 0000.0001) %MON dynstat_uvel_del2            =   1.3306973757742E-05
(PID.TID 0000.0001) %MON dynstat_vvel_max             =   1.2909645203226E+00
(PID.TID 0000.0001) %MON dynstat_vvel_min             =  -9.5143061590733E-01
(PID.TID 0000.0001) %MON dynstat_vvel_mean            =   1.2183044699236E-03
(PID.TID 0000.0001) %MON dynstat_vvel_sd              =   2.4033884125449E-02
(PID.TID 0000.0001) %MON dynstat_vvel_del2            =   1.3597554565860E-05
(PID.TID 0000.0001) %MON dynstat_wvel_max             =   6.6951473759612E-04
(PID.TID 0000.0001) %MON dynstat_wvel_min             =  -1.3528810857144E-03
(PID.TID 0000.0001) %MON dynstat_wvel_mean            =  -2.1065873062392E-09
(PID.TID 0000.0001) %MON dynstat_wvel_sd              =   2.6310472291772E-05
(PID.TID 0000.0001) %MON dynstat_wvel_del2            =   2.6014766470688E-08
(PID.TID 0000.0001) %MON dynstat_theta_max            =   3.2641719288338E+01
(PID.TID 0000.0001) %MON dynstat_theta_min            =  -2.0417585017332E+00
(PID.TID 0000.0001) %MON dynstat_theta_mean           =   3.5906968589682E+00
(PID.TID 0000.0001) %MON dynstat_theta_sd             =   4.4363757592717E+00
(PID.TID 0000.0001) %MON dynstat_theta_del2           =   1.0518049247964E-04
(PID.TID 0000.0001) %MON dynstat_salt_max             =   4.0711414803699E+01
(PID.TID 0000.0001) %MON dynstat_salt_min             =   1.7531094082739E+01
(PID.TID 0000.0001) %MON dynstat_salt_mean            =   3.4725698423303E+01
(PID.TID 0000.0001) %MON dynstat_salt_sd              =   3.7884786340195E-01
(PID.TID 0000.0001) %MON dynstat_salt_del2            =   2.5562084893636E-05
(PID.TID 0000.0001) %MON dynstat_sst_max              =   3.2641693953264E+01
(PID.TID 0000.0001) %MON dynstat_sst_min              =  -1.9610023740965E+00
(PID.TID 0000.0001) %MON dynstat_sst_mean             =   1.8525227630991E+01
(PID.TID 0000.0001) %MON dynstat_sst_sd               =   1.0058016979822E+01
(PID.TID 0000.0001) %MON dynstat_sst_del2             =   8.8221637663018E-04
(PID.TID 0000.0001) %MON dynstat_sss_max              =   3.9722363446025E+01
(PID.TID 0000.0001) %MON dynstat_sss_min              =   1.7531094082739E+01
(PID.TID 0000.0001) %MON dynstat_sss_mean             =   3.4723004004965E+01
(PID.TID 0000.0001) %MON dynstat_sss_sd               =   1.2180669688971E+00
(PID.TID 0000.0001) %MON dynstat_sss_del2             =   3.8973443925396E-04
(PID.TID 0000.0001) %MON forcing_qnet_max             =   8.7495138398128E+02
(PID.TID 0000.0001) %MON forcing_qnet_min             =  -6.5836314732142E+02
(PID.TID 0000.0001) %MON forcing_qnet_mean            =  -2.1658653100771E+01
(PID.TID 0000.0001) %MON forcing_qnet_sd              =   2.1976482695679E+02
(PID.TID 0000.0001) %MON forcing_qnet_del2            =   1.5049411707903E-01
(PID.TID 0000.0001) %MON forcing_qsw_max              =   2.5529249181354E+01
(PID.TID 0000.0001) %MON forcing_qsw_min              =  -7.2042246265765E+02
(PID.TID 0000.0001) %MON forcing_qsw_mean             =  -1.9853503320210E+02
(PID.TID 0000.0001) %MON forcing_qsw_sd               =   1.8753614859268E+02
(PID.TID 0000.0001) %MON forcing_qsw_del2             =   7.9963746681535E-02
(PID.TID 0000.0001) %MON forcing_empmr_max            =   1.5345405231203E-03
(PID.TID 0000.0001) %MON forcing_empmr_min            =  -2.1410377401397E-03
(PID.TID 0000.0001) %MON forcing_empmr_mean           =   3.9484601850874E-06
(PID.TID 0000.0001) %MON forcing_empmr_sd             =   1.0456430711186E-04
(PID.TID 0000.0001) %MON forcing_empmr_del2           =   4.3300795727442E-07
(PID.TID 0000.0001) %MON forcing_fu_max               =   8.6543865998587E-01
(PID.TID 0000.0001) %MON forcing_fu_min               =  -1.8966371739565E+00
(PID.TID 0000.0001) %MON forcing_fu_mean              =   1.0907176178147E-02
(PID.TID 0000.0001) %MON forcing_fu_sd                =   1.1536979071483E-01
(PID.TID 0000.0001) %MON forcing_fu_del2              =   9.7431220677871E-05
(PID.TID 0000.0001) %MON forcing_fv_max               =   9.9639171940026E-01
(PID.TID 0000.0001) %MON forcing_fv_min               =  -1.2862551694544E+00
(PID.TID 0000.0001) %MON forcing_fv_mean              =  -1.0033427310462E-04
(PID.TID 0000.0001) %MON forcing_fv_sd                =   1.1159647949838E-01
(PID.TID 0000.0001) %MON forcing_fv_del2              =   9.9057826883115E-05
(PID.TID 0000.0001) %MON trAdv_CFL_u_max              =   6.8070879055771E-02
(PID.TID 0000.0001) %MON trAdv_CFL_v_max              =   5.5032890790510E-02
(PID.TID 0000.0001) %MON trAdv_CFL_w_max              =   2.0828018151481E-01
(PID.TID 0000.0001) %MON advcfl_uvel_max              =   6.5087633896689E-02
(PID.TID 0000.0001) %MON advcfl_vvel_max              =   5.7447119183401E-02
(PID.TID 0000.0001) %MON advcfl_wvel_max              =   2.0932503736543E-01
(PID.TID 0000.0001) %MON advcfl_W_hf_max              =   2.1899850557999E-01
(PID.TID 0000.0001) %MON pe_b_mean                    =   4.2557930040144E-04
(PID.TID 0000.0001) %MON ke_max                       =   8.4624448606185E-01
(PID.TID 0000.0001) %MON ke_mean                      =   5.0483460207587E-04
(PID.TID 0000.0001) %MON ke_vol                       =   1.3349969562195E+18
(PID.TID 0000.0001) %MON vort_r_min                   =  -2.7547420743514E-05
(PID.TID 0000.0001) %MON vort_r_max                   =   2.7234667369673E-05
(PID.TID 0000.0001) %MON vort_a_mean                  =  -1.9727864647440E-05
(PID.TID 0000.0001) %MON vort_a_sd                    =   7.4543277357551E-05
(PID.TID 0000.0001) %MON vort_p_mean                  =  -2.1760540287203E-05
(PID.TID 0000.0001) %MON vort_p_sd                    =   9.7244016124275E-05
(PID.TID 0000.0001) %MON surfExpan_theta_mean         =  -1.4875634472019E-08
(PID.TID 0000.0001) %MON surfExpan_salt_mean          =   2.9476610293673E-08
(PID.TID 0000.0001) // =======================================================
(PID.TID 0000.0001) // End MONITOR dynamic field statistics
(PID.TID 0000.0001) // =======================================================
(PID.TID 0000.0001) // =======================================================
(PID.TID 0000.0001) // Begin MONITOR SEAICE statistics
(PID.TID 0000.0001) // =======================================================
(PID.TID 0000.0001) %MON seaice_tsnumber              =                    56
(PID.TID 0000.0001) %MON seaice_time_sec              =   2.0160000000000E+05
(PID.TID 0000.0001) %MON seaice_uice_max              =   4.0000000000000E-01
(PID.TID 0000.0001) %MON seaice_uice_min              =  -4.0000000000000E-01
(PID.TID 0000.0001) %MON seaice_uice_mean             =   7.1337276223136E-03
(PID.TID 0000.0001) %MON seaice_uice_sd               =   1.9407218954819E-01
(PID.TID 0000.0001) %MON seaice_uice_del2             =   1.8211714865464E-04
(PID.TID 0000.0001) %MON seaice_vice_max              =   4.0000000000000E-01
(PID.TID 0000.0001) %MON seaice_vice_min              =  -4.0000000000000E-01
(PID.TID 0000.0001) %MON seaice_vice_mean             =  -6.2462522446226E-03
(PID.TID 0000.0001) %MON seaice_vice_sd               =   1.9810990713150E-01
(PID.TID 0000.0001) %MON seaice_vice_del2             =   1.9707045221055E-04
(PID.TID 0000.0001) %MON seaice_area_max              =   9.5000000000000E-01
(PID.TID 0000.0001) %MON seaice_area_min              =   0.0000000000000E+00
(PID.TID 0000.0001) %MON seaice_area_mean             =   3.8325560985792E-02
(PID.TID 0000.0001) %MON seaice_area_sd               =   1.7737931716437E-01
(PID.TID 0000.0001) %MON seaice_area_del2             =   2.6631269967083E-04
(PID.TID 0000.0001) %MON seaice_heff_max              =   3.9890166785825E+00
(PID.TID 0000.0001) %MON seaice_heff_min              =   0.0000000000000E+00
(PID.TID 0000.0001) %MON seaice_heff_mean             =   5.3609304675129E-02
(PID.TID 0000.0001) %MON seaice_heff_sd               =   3.0821316257262E-01
(PID.TID 0000.0001) %MON seaice_heff_del2             =   2.9611460134922E-04
(PID.TID 0000.0001) %MON seaice_hsnow_max             =   9.6321672670744E-01
(PID.TID 0000.0001) %MON seaice_hsnow_min             =  -2.8766923469577E-05
(PID.TID 0000.0001) %MON seaice_hsnow_mean            =   5.2091001138958E-03
(PID.TID 0000.0001) %MON seaice_hsnow_sd              =   3.1418930393778E-02
(PID.TID 0000.0001) %MON seaice_hsnow_del2            =   5.3281232405012E-05
(PID.TID 0000.0001) // =======================================================
(PID.TID 0000.0001) // End MONITOR SEAICE statistics
(PID.TID 0000.0001) // =======================================================
(PID.TID 0000.0001) // =======================================================
(PID.TID 0000.0001) // Begin MONITOR EXF statistics
(PID.TID 0000.0001) // =======================================================
(PID.TID 0000.0001) %MON exf_tsnumber                 =                    56
(PID.TID 0000.0001) %MON exf_time_sec                 =   2.0160000000000E+05
(PID.TID 0000.0001) %MON exf_ustress_max              =   1.1084136565527E+00
(PID.TID 0000.0001) %MON exf_ustress_min              =  -1.4455149514773E+00
(PID.TID 0000.0001) %MON exf_ustress_mean             =   1.1383862498402E-02
(PID.TID 0000.0001) %MON exf_ustress_sd               =   1.1245128808313E-01
(PID.TID 0000.0001) %MON exf_ustress_del2             =   9.9716469198109E-05
(PID.TID 0000.0001) %MON exf_vstress_max              =   8.3061824242271E-01
(PID.TID 0000.0001) %MON exf_vstress_min              =  -1.0962630212307E+00
(PID.TID 0000.0001) %MON exf_vstress_mean             =  -6.5670237417244E-04
(PID.TID 0000.0001) %MON exf_vstress_sd               =   1.0786913009890E-01
(PID.TID 0000.0001) %MON exf_vstress_del2             =   9.1567519644209E-05
(PID.TID 0000.0001) %MON exf_hflux_max                =   1.1131271431511E+03
(PID.TID 0000.0001) %MON exf_hflux_min                =  -6.5699249705513E+02
(PID.TID 0000.0001) %MON exf_hflux_mean               =  -1.0979489752109E+01
(PID.TID 0000.0001) %MON exf_hflux_sd                 =   2.6636899739535E+02
(PID.TID 0000.0001) %MON exf_hflux_del2               =   4.7308218332341E-01
(PID.TID 0000.0001) %MON exf_sflux_max                =   2.3218700920802E-07
(PID.TID 0000.0001) %MON exf_sflux_min                =  -2.1448845232599E-06
(PID.TID 0000.0001) %MON exf_sflux_mean               =   4.4544171657073E-09
(PID.TID 0000.0001) %MON exf_sflux_sd                 =   9.1845770564739E-08
(PID.TID 0000.0001) %MON exf_sflux_del2               =   2.3143407016831E-10
(PID.TID 0000.0001) %MON exf_wspeed_max               =   2.0735940297445E+01
(PID.TID 0000.0001) %MON exf_wspeed_min               =   2.8239055474599E-01
(PID.TID 0000.0001) %MON exf_wspeed_mean              =   6.8541415695563E+00
(PID.TID 0000.0001) %MON exf_wspeed_sd                =   3.1303876435124E+00
(PID.TID 0000.0001) %MON exf_wspeed_del2              =   1.2106818087989E-02
(PID.TID 0000.0001) %MON exf_atemp_max                =   3.0463009872437E+02
(PID.TID 0000.0001) %MON exf_atemp_min                =   2.2539961916606E+02
(PID.TID 0000.0001) %MON exf_atemp_mean               =   2.8908360668990E+02
(PID.TID 0000.0001) %MON exf_atemp_sd                 =   1.2379462175021E+01
(PID.TID 0000.0001) %MON exf_atemp_del2               =   2.6452943119376E-02
(PID.TID 0000.0001) %MON exf_aqh_max                  =   2.1585436227421E-02
(PID.TID 0000.0001) %MON exf_aqh_min                  =   6.4090374507941E-05
(PID.TID 0000.0001) %MON exf_aqh_mean                 =   1.0865429799588E-02
(PID.TID 0000.0001) %MON exf_aqh_sd                   =   5.6285387340189E-03
(PID.TID 0000.0001) %MON exf_aqh_del2                 =   1.4525089730513E-05
(PID.TID 0000.0001) %MON exf_lwflux_max               =   2.2124177651229E+02
(PID.TID 0000.0001) %MON exf_lwflux_min               =  -2.2314736461802E+01
(PID.TID 0000.0001) %MON exf_lwflux_mean              =   4.8916483411398E+01
(PID.TID 0000.0001) %MON exf_lwflux_sd                =   2.9446058004066E+01
(PID.TID 0000.0001) %MON exf_lwflux_del2              =   1.0180076455709E-01
(PID.TID 0000.0001) %MON exf_evap_max                 =   2.3711508908506E-07
(PID.TID 0000.0001) %MON exf_evap_min                 =  -3.5443385952491E-08
(PID.TID 0000.0001) %MON exf_evap_mean                =   4.5570597487822E-08
(PID.TID 0000.0001) %MON exf_evap_sd                  =   2.8913448281017E-08
(PID.TID 0000.0001) %MON exf_evap_del2                =   7.5653640296788E-11
(PID.TID 0000.0001) %MON exf_precip_max               =   2.0279245707873E-06
(PID.TID 0000.0001) %MON exf_precip_min               =  -1.5853751792842E-08
(PID.TID 0000.0001) %MON exf_precip_mean              =   3.8094547873777E-08
(PID.TID 0000.0001) %MON exf_precip_sd                =   8.4859869448520E-08
(PID.TID 0000.0001) %MON exf_precip_del2              =   2.2976871363584E-10
(PID.TID 0000.0001) %MON exf_swflux_max               =   2.5613327995750E+01
(PID.TID 0000.0001) %MON exf_swflux_min               =  -8.0661484287740E+02
(PID.TID 0000.0001) %MON exf_swflux_mean              =  -2.0447221549574E+02
(PID.TID 0000.0001) %MON exf_swflux_sd                =   2.1359604016404E+02
(PID.TID 0000.0001) %MON exf_swflux_del2              =   4.0870134505141E-01
(PID.TID 0000.0001) %MON exf_swdown_max               =   8.6971822611491E+02
(PID.TID 0000.0001) %MON exf_swdown_min               =  -3.4324958801270E+01
(PID.TID 0000.0001) %MON exf_swdown_mean              =   2.2177845228823E+02
(PID.TID 0000.0001) %MON exf_swdown_sd                =   2.3074121416402E+02
(PID.TID 0000.0001) %MON exf_swdown_del2              =   4.4362517476375E-01
(PID.TID 0000.0001) %MON exf_lwdown_max               =   4.6171252950033E+02
(PID.TID 0000.0001) %MON exf_lwdown_min               =   7.8589480082194E+01
(PID.TID 0000.0001) %MON exf_lwdown_mean              =   3.6282770949426E+02
(PID.TID 0000.0001) %MON exf_lwdown_sd                =   6.5619110411823E+01
(PID.TID 0000.0001) %MON exf_lwdown_del2              =   4.8481699326004E-01
(PID.TID 0000.0001) %MON exf_runoff_max               =   2.1096262028755E-06
(PID.TID 0000.0001) %MON exf_runoff_min               =   0.0000000000000E+00
(PID.TID 0000.0001) %MON exf_runoff_mean              =   3.0216324483376E-09
(PID.TID 0000.0001) %MON exf_runoff_sd                =   2.4642338450209E-08
(PID.TID 0000.0001) %MON exf_runoff_del2              =   1.8370398639387E-11
(PID.TID 0000.0001) // =======================================================
(PID.TID 0000.0001) // End MONITOR EXF statistics
(PID.TID 0000.0001) // =======================================================
 SEAICE_LSR: Residual Initial ipass,Uice,Vice=    1  1.43976051E-01  1.70863077E-01
 SEAICE_LSR: Residual FrDrift U_fd,V_fd=  8.07228776E+01  8.21667092E+01
 SEAICE_LSR (ipass=   1) iters,dU,Resid=   174  1.95093506E-04  1.44493456E-03
 SEAICE_LSR (ipass=   1) iters,dV,Resid=   174  3.31287116E-05  2.51167190E-03
 SEAICE_LSR: Residual Initial ipass,Uice,Vice=    2  8.63228934E-01  2.52424925E-01
 SEAICE_LSR: Residual FrDrift U_fd,V_fd=  8.01693733E+01  8.21036813E+01
 SEAICE_LSR (ipass=   2) iters,dU,Resid=    72  3.94365302E-05  1.72025453E-03
 SEAICE_LSR (ipass=   2) iters,dV,Resid=    72  1.93872830E-04  2.39348330E-03
 cg2d: Sum(rhs),rhsMax =   5.13570150432837E+00  4.01811834458527E-01
 cg2d: Sum(rhs),rhsMax =   5.16283405856340E+00  4.05246100842829E-01
(PID.TID 0000.0001)      cg2d_init_res =   3.21163550607509E-01
(PID.TID 0000.0001)      cg2d_iters(min,last) =      -1      91
(PID.TID 0000.0001)      cg2d_last_res =   7.04927022387940E-06
(PID.TID 0000.0001) // =======================================================
(PID.TID 0000.0001) // Begin MONITOR dynamic field statistics
(PID.TID 0000.0001) // =======================================================
(PID.TID 0000.0001) %MON time_tsnumber                =                    58
(PID.TID 0000.0001) %MON time_secondsf                =   2.0880000000000E+05
(PID.TID 0000.0001) %MON dynstat_eta_max              =   1.7847583018862E+00
(PID.TID 0000.0001) %MON dynstat_eta_min              =  -4.0370245592576E+00
(PID.TID 0000.0001) %MON dynstat_eta_mean             =  -2.6130708843245E-03
(PID.TID 0000.0001) %MON dynstat_eta_sd               =   7.4144177214972E-01
(PID.TID 0000.0001) %MON dynstat_eta_del2             =   2.8498518821073E-04
(PID.TID 0000.0001) %MON dynstat_uvel_max             =   1.0196492390969E+00
(PID.TID 0000.0001) %MON dynstat_uvel_min             =  -8.0469500559270E-01
(PID.TID 0000.0001) %MON dynstat_uvel_mean            =   1.3831557657544E-03
(PID.TID 0000.0001) %MON dynstat_uvel_sd              =   2.1561797628872E-02
(PID.TID 0000.0001) %MON dynstat_uvel_del2            =   1.3252444860875E-05
(PID.TID 0000.0001) %MON dynstat_vvel_max             =   1.3048667008124E+00
(PID.TID 0000.0001) %MON dynstat_vvel_min             =  -9.6768426996793E-01
(PID.TID 0000.0001) %MON dynstat_vvel_mean            =   1.2045476324022E-03
(PID.TID 0000.0001) %MON dynstat_vvel_sd              =   2.4067156639352E-02
(PID.TID 0000.0001) %MON dynstat_vvel_del2            =   1.3570006766043E-05
(PID.TID 0000.0001) %MON dynstat_wvel_max             =   6.2564753364277E-04
(PID.TID 0000.0001) %MON dynstat_wvel_min             =  -1.3570039222015E-03
(PID.TID 0000.0001) %MON dynstat_wvel_mean            =  -1.1598286819088E-09
(PID.TID 0000.0001) %MON dynstat_wvel_sd              =   2.6011074369117E-05
(PID.TID 0000.0001) %MON dynstat_wvel_del2            =   2.5672088038546E-08
(PID.TID 0000.0001) %MON dynstat_theta_max            =   3.2633698907560E+01
(PID.TID 0000.0001) %MON dynstat_theta_min            =  -2.0417269615602E+00
(PID.TID 0000.0001) %MON dynstat_theta_mean           =   3.5907100813102E+00
(PID.TID 0000.0001) %MON dynstat_theta_sd             =   4.4364119418723E+00
(PID.TID 0000.0001) %MON dynstat_theta_del2           =   1.0518935325089E-04
(PID.TID 0000.0001) %MON dynstat_salt_max             =   4.0711411050068E+01
(PID.TID 0000.0001) %MON dynstat_salt_min             =   1.7532968207454E+01
(PID.TID 0000.0001) %MON dynstat_salt_mean            =   3.4725698673313E+01
(PID.TID 0000.0001) %MON dynstat_salt_sd              =   3.7884606963953E-01
(PID.TID 0000.0001) %MON dynstat_salt_del2            =   2.5559383214246E-05
(PID.TID 0000.0001) %MON dynstat_sst_max              =   3.2633675645376E+01
(PID.TID 0000.0001) %MON dynstat_sst_min              =  -1.9610110371681E+00
(PID.TID 0000.0001) %MON dynstat_sst_mean             =   1.8527702282000E+01
(PID.TID 0000.0001) %MON dynstat_sst_sd               =   1.0058384572418E+01
(PID.TID 0000.0001) %MON dynstat_sst_del2             =   8.8396021073341E-04
(PID.TID 0000.0001) %MON dynstat_sss_max              =   3.9726894281877E+01
(PID.TID 0000.0001) %MON dynstat_sss_min              =   1.7532968207454E+01
(PID.TID 0000.0001) %MON dynstat_sss_mean             =   3.4723094498183E+01
(PID.TID 0000.0001) %MON dynstat_sss_sd               =   1.2179623821924E+00
(PID.TID 0000.0001) %MON dynstat_sss_del2             =   3.8978428877348E-04
(PID.TID 0000.0001) %MON forcing_qnet_max             =   8.3824466604401E+02
(PID.TID 0000.0001) %MON forcing_qnet_min             =  -7.2840542909949E+02
(PID.TID 0000.0001) %MON forcing_qnet_mean            =  -3.0600407489866E+01
(PID.TID 0000.0001) %MON forcing_qnet_sd              =   2.7557674432161E+02
(PID.TID 0000.0001) %MON forcing_qnet_del2            =   1.6292922983498E-01
(PID.TID 0000.0001) %MON forcing_qsw_max              =   2.5697407096512E+01
(PID.TID 0000.0001) %MON forcing_qsw_min              =  -9.2984810890293E+02
(PID.TID 0000.0001) %MON forcing_qsw_mean             =  -2.0739537003914E+02
(PID.TID 0000.0001) %MON forcing_qsw_sd               =   2.4961000163009E+02
(PID.TID 0000.0001) %MON forcing_qsw_del2             =   9.5556997520542E-02
(PID.TID 0000.0001) %MON forcing_empmr_max            =   1.5592887803692E-03
(PID.TID 0000.0001) %MON forcing_empmr_min            =  -2.1730190584453E-03
(PID.TID 0000.0001) %MON forcing_empmr_mean           =   3.9252432760679E-06
(PID.TID 0000.0001) %MON forcing_empmr_sd             =   1.1133196027946E-04
(PID.TID 0000.0001) %MON forcing_empmr_del2           =   4.5217645584145E-07
(PID.TID 0000.0001) %MON forcing_fu_max               =   9.9287697672844E-01
(PID.TID 0000.0001) %MON forcing_fu_min               =  -1.9882877880035E+00
(PID.TID 0000.0001) %MON forcing_fu_mean              =   1.0358662128203E-02
(PID.TID 0000.0001) %MON forcing_fu_sd                =   1.2083614613453E-01
(PID.TID 0000.0001) %MON forcing_fu_del2              =   1.0845482229121E-04
(PID.TID 0000.0001) %MON forcing_fv_max               =   9.9852931032755E-01
(PID.TID 0000.0001) %MON forcing_fv_min               =  -1.3128366553486E+00
(PID.TID 0000.0001) %MON forcing_fv_mean              =  -2.5158132759114E-04
(PID.TID 0000.0001) %MON forcing_fv_sd                =   1.1576001239515E-01
(PID.TID 0000.0001) %MON forcing_fv_del2              =   1.0931349491729E-04
(PID.TID 0000.0001) %MON trAdv_CFL_u_max              =   6.6616217874262E-02
(PID.TID 0000.0001) %MON trAdv_CFL_v_max              =   5.7692876659951E-02
(PID.TID 0000.0001) %MON trAdv_CFL_w_max              =   2.1494454040696E-01
(PID.TID 0000.0001) %MON advcfl_uvel_max              =   6.8358205986875E-02
(PID.TID 0000.0001) %MON advcfl_vvel_max              =   5.9737780168065E-02
(PID.TID 0000.0001) %MON advcfl_wvel_max              =   2.1630170946904E-01
(PID.TID 0000.0001) %MON advcfl_W_hf_max              =   2.2566278862964E-01
(PID.TID 0000.0001) %MON pe_b_mean                    =   4.2513766432113E-04
(PID.TID 0000.0001) %MON ke_max                       =   8.6318959682558E-01
(PID.TID 0000.0001) %MON ke_mean                      =   5.0510496029937E-04
(PID.TID 0000.0001) %MON ke_vol                       =   1.3349969463402E+18
(PID.TID 0000.0001) %MON vort_r_min                   =  -2.6287879725526E-05
(PID.TID 0000.0001) %MON vort_r_max                   =   2.5610987942696E-05
(PID.TID 0000.0001) %MON vort_a_mean                  =  -1.9727864647440E-05
(PID.TID 0000.0001) %MON vort_a_sd                    =   7.4543271867519E-05
(PID.TID 0000.0001) %MON vort_p_mean                  =  -2.1760540414930E-05
(PID.TID 0000.0001) %MON vort_p_sd                    =   9.7244121946735E-05
(PID.TID 0000.0001) %MON surfExpan_theta_mean         =   1.3060704431342E-08
(PID.TID 0000.0001) %MON surfExpan_salt_mean          =   2.8876416005511E-08
(PID.TID 0000.0001) // =======================================================
(PID.TID 0000.0001) // End MONITOR dynamic field statistics
(PID.TID 0000.0001) // =======================================================
(PID.TID 0000.0001) // =======================================================
(PID.TID 0000.0001) // Begin MONITOR SEAICE statistics
(PID.TID 0000.0001) // =======================================================
(PID.TID 0000.0001) %MON seaice_tsnumber              =                    58
(PID.TID 0000.0001) %MON seaice_time_sec              =   2.0880000000000E+05
(PID.TID 0000.0001) %MON seaice_uice_max              =   4.0000000000000E-01
(PID.TID 0000.0001) %MON seaice_uice_min              =  -4.0000000000000E-01
(PID.TID 0000.0001) %MON seaice_uice_mean             =   6.7960670781264E-03
(PID.TID 0000.0001) %MON seaice_uice_sd               =   1.9460406508247E-01
(PID.TID 0000.0001) %MON seaice_uice_del2             =   1.8722716758687E-04
(PID.TID 0000.0001) %MON seaice_vice_max              =   4.0000000000000E-01
(PID.TID 0000.0001) %MON seaice_vice_min              =  -4.0000000000000E-01
(PID.TID 0000.0001) %MON seaice_vice_mean             =  -6.0627965232651E-03
(PID.TID 0000.0001) %MON seaice_vice_sd               =   1.9869701379450E-01
(PID.TID 0000.0001) %MON seaice_vice_del2             =   2.0121506628685E-04
(PID.TID 0000.0001) %MON seaice_area_max              =   9.5000000000000E-01
(PID.TID 0000.0001) %MON seaice_area_min              =   0.0000000000000E+00
(PID.TID 0000.0001) %MON seaice_area_mean             =   3.8298023203637E-02
(PID.TID 0000.0001) %MON seaice_area_sd               =   1.7730593054619E-01
(PID.TID 0000.0001) %MON seaice_area_del2             =   2.6451589366540E-04
(PID.TID 0000.0001) %MON seaice_heff_max              =   3.9891488867825E+00
(PID.TID 0000.0001) %MON seaice_heff_min              =   0.0000000000000E+00
(PID.TID 0000.0001) %MON seaice_heff_mean             =   5.3616293704691E-02
(PID.TID 0000.0001) %MON seaice_heff_sd               =   3.0836715778816E-01
(PID.TID 0000.0001) %MON seaice_heff_del2             =   2.9611285427118E-04
(PID.TID 0000.0001) %MON seaice_hsnow_max             =   9.6242802256920E-01
(PID.TID 0000.0001) %MON seaice_hsnow_min             =  -2.2419362124346E-05
(PID.TID 0000.0001) %MON seaice_hsnow_mean            =   5.2078252046403E-03
(PID.TID 0000.0001) %MON seaice_hsnow_sd              =   3.1417636326953E-02
(PID.TID 0000.0001) %MON seaice_hsnow_del2            =   5.3318985096790E-05
(PID.TID 0000.0001) // =======================================================
(PID.TID 0000.0001) // End MONITOR SEAICE statistics
(PID.TID 0000.0001) // =======================================================
(PID.TID 0000.0001) // =======================================================
(PID.TID 0000.0001) // Begin MONITOR EXF statistics
(PID.TID 0000.0001) // =======================================================
(PID.TID 0000.0001) %MON exf_tsnumber                 =                    58
(PID.TID 0000.0001) %MON exf_time_sec                 =   2.0880000000000E+05
(PID.TID 0000.0001) %MON exf_ustress_max              =   1.1091071367264E+00
(PID.TID 0000.0001) %MON exf_ustress_min              =  -1.5160485963568E+00
(PID.TID 0000.0001) %MON exf_ustress_mean             =   1.0900707266043E-02
(PID.TID 0000.0001) %MON exf_ustress_sd               =   1.1257674274833E-01
(PID.TID 0000.0001) %MON exf_ustress_del2             =   9.9849797291443E-05
(PID.TID 0000.0001) %MON exf_vstress_max              =   8.0590870976448E-01
(PID.TID 0000.0001) %MON exf_vstress_min              =  -1.0439349214236E+00
(PID.TID 0000.0001) %MON exf_vstress_mean             =  -5.8860873217615E-04
(PID.TID 0000.0001) %MON exf_vstress_sd               =   1.0790920107971E-01
(PID.TID 0000.0001) %MON exf_vstress_del2             =   9.0943212404439E-05
(PID.TID 0000.0001) %MON exf_hflux_max                =   1.1103203986033E+03
(PID.TID 0000.0001) %MON exf_hflux_min                =  -6.6446118087354E+02
(PID.TID 0000.0001) %MON exf_hflux_mean               =  -1.2817407474077E+01
(PID.TID 0000.0001) %MON exf_hflux_sd                 =   2.6417995838574E+02
(PID.TID 0000.0001) %MON exf_hflux_del2               =   4.7184935500857E-01
(PID.TID 0000.0001) %MON exf_sflux_max                =   2.3835274249486E-07
(PID.TID 0000.0001) %MON exf_sflux_min                =  -2.1320389993880E-06
(PID.TID 0000.0001) %MON exf_sflux_mean               =   4.8370634096226E-09
(PID.TID 0000.0001) %MON exf_sflux_sd                 =   9.0895654425739E-08
(PID.TID 0000.0001) %MON exf_sflux_del2               =   2.3055671522771E-10
(PID.TID 0000.0001) %MON exf_wspeed_max               =   2.1252961158752E+01
(PID.TID 0000.0001) %MON exf_wspeed_min               =   2.7172041436036E-01
(PID.TID 0000.0001) %MON exf_wspeed_mean              =   6.8531334199905E+00
(PID.TID 0000.0001) %MON exf_wspeed_sd                =   3.1320048472650E+00
(PID.TID 0000.0001) %MON exf_wspeed_del2              =   1.2122201883178E-02
(PID.TID 0000.0001) %MON exf_atemp_max                =   3.0489081198374E+02
(PID.TID 0000.0001) %MON exf_atemp_min                =   2.2567029164632E+02
(PID.TID 0000.0001) %MON exf_atemp_mean               =   2.8909137282049E+02
(PID.TID 0000.0001) %MON exf_atemp_sd                 =   1.2388387406860E+01
(PID.TID 0000.0001) %MON exf_atemp_del2               =   2.6458185633019E-02
(PID.TID 0000.0001) %MON exf_aqh_max                  =   2.1619418325524E-02
(PID.TID 0000.0001) %MON exf_aqh_min                  =   6.5128738545657E-05
(PID.TID 0000.0001) %MON exf_aqh_mean                 =   1.0872457280436E-02
(PID.TID 0000.0001) %MON exf_aqh_sd                   =   5.6370688929749E-03
(PID.TID 0000.0001) %MON exf_aqh_del2                 =   1.4531763214064E-05
(PID.TID 0000.0001) %MON exf_lwflux_max               =   2.2015357931601E+02
(PID.TID 0000.0001) %MON exf_lwflux_min               =  -2.0036452772479E+01
(PID.TID 0000.0001) %MON exf_lwflux_mean              =   4.8936799766346E+01
(PID.TID 0000.0001) %MON exf_lwflux_sd                =   2.9339718091371E+01
(PID.TID 0000.0001) %MON exf_lwflux_del2              =   1.0182993313052E-01
(PID.TID 0000.0001) %MON exf_evap_max                 =   2.4330580850254E-07
(PID.TID 0000.0001) %MON exf_evap_min                 =  -3.4116773972038E-08
(PID.TID 0000.0001) %MON exf_evap_mean                =   4.5555456810330E-08
(PID.TID 0000.0001) %MON exf_evap_sd                  =   2.8922436223184E-08
(PID.TID 0000.0001) %MON exf_evap_del2                =   7.5941457654337E-11
(PID.TID 0000.0001) %MON exf_precip_max               =   2.0397123800346E-06
(PID.TID 0000.0001) %MON exf_precip_min               =  -1.6060071790965E-08
(PID.TID 0000.0001) %MON exf_precip_mean              =   3.7697665377996E-08
(PID.TID 0000.0001) %MON exf_precip_sd                =   8.3737217018172E-08
(PID.TID 0000.0001) %MON exf_precip_del2              =   2.2875018885597E-10
(PID.TID 0000.0001) %MON exf_swflux_max               =   2.5712127649540E+01
(PID.TID 0000.0001) %MON exf_swflux_min               =  -8.1504424038683E+02
(PID.TID 0000.0001) %MON exf_swflux_mean              =  -2.0628342354853E+02
(PID.TID 0000.0001) %MON exf_swflux_sd                =   2.1266901607269E+02
(PID.TID 0000.0001) %MON exf_swflux_del2              =   4.1087576673284E-01
(PID.TID 0000.0001) %MON exf_swdown_max               =   8.7889176432292E+02
(PID.TID 0000.0001) %MON exf_swdown_min               =  -3.4457244873047E+01
(PID.TID 0000.0001) %MON exf_swdown_mean              =   2.2371641472235E+02
(PID.TID 0000.0001) %MON exf_swdown_sd                =   2.2976257781795E+02
(PID.TID 0000.0001) %MON exf_swdown_del2              =   4.4592664430443E-01
(PID.TID 0000.0001) %MON exf_lwdown_max               =   4.6127203877767E+02
(PID.TID 0000.0001) %MON exf_lwdown_min               =   7.9711339314779E+01
(PID.TID 0000.0001) %MON exf_lwdown_mean              =   3.6282092370008E+02
(PID.TID 0000.0001) %MON exf_lwdown_sd                =   6.5605469227222E+01
(PID.TID 0000.0001) %MON exf_lwdown_del2              =   4.8457928197294E-01
(PID.TID 0000.0001) %MON exf_runoff_max               =   2.1127803616735E-06
(PID.TID 0000.0001) %MON exf_runoff_min               =   0.0000000000000E+00
(PID.TID 0000.0001) %MON exf_runoff_mean              =   3.0207280227114E-09
(PID.TID 0000.0001) %MON exf_runoff_sd                =   2.4672009810471E-08
(PID.TID 0000.0001) %MON exf_runoff_del2              =   1.8381372016464E-11
(PID.TID 0000.0001) // =======================================================
(PID.TID 0000.0001) // End MONITOR EXF statistics
(PID.TID 0000.0001) // =======================================================
 SEAICE_LSR: Residual Initial ipass,Uice,Vice=    1  1.45231363E-01  1.73009086E-01
 SEAICE_LSR: Residual FrDrift U_fd,V_fd=  7.54333960E+01  8.24588493E+01
 SEAICE_LSR (ipass=   1) iters,dU,Resid=   180  1.96635267E-04  1.26501995E-03
 SEAICE_LSR (ipass=   1) iters,dV,Resid=   180  3.34425905E-05  2.97771398E-03
 SEAICE_LSR: Residual Initial ipass,Uice,Vice=    2  1.03497027E+00  2.46312021E-01
 SEAICE_LSR: Residual FrDrift U_fd,V_fd=  7.51415164E+01  8.24185706E+01
 SEAICE_LSR (ipass=   2) iters,dU,Resid=    72  4.85065112E-05  1.56063543E-03
 SEAICE_LSR (ipass=   2) iters,dV,Resid=    72  1.93824442E-04  2.87319305E-03
 cg2d: Sum(rhs),rhsMax =   5.19300152815390E+00  4.08711558576751E-01
 cg2d: Sum(rhs),rhsMax =   5.22613388383174E+00  4.12264609076816E-01
(PID.TID 0000.0001)      cg2d_init_res =   2.96227976245862E-01
(PID.TID 0000.0001)      cg2d_iters(min,last) =      -1      89
(PID.TID 0000.0001)      cg2d_last_res =   6.75372157438534E-06
(PID.TID 0000.0001) // =======================================================
(PID.TID 0000.0001) // Begin MONITOR dynamic field statistics
(PID.TID 0000.0001) // =======================================================
(PID.TID 0000.0001) %MON time_tsnumber                =                    60
(PID.TID 0000.0001) %MON time_secondsf                =   2.1600000000000E+05
(PID.TID 0000.0001) %MON dynstat_eta_max              =   1.7852898664612E+00
(PID.TID 0000.0001) %MON dynstat_eta_min              =  -4.0433144840073E+00
(PID.TID 0000.0001) %MON dynstat_eta_mean             =  -2.6451088945560E-03
(PID.TID 0000.0001) %MON dynstat_eta_sd               =   7.4136941733408E-01
(PID.TID 0000.0001) %MON dynstat_eta_del2             =   2.8507727351573E-04
(PID.TID 0000.0001) %MON dynstat_uvel_max             =   1.0000629366962E+00
(PID.TID 0000.0001) %MON dynstat_uvel_min             =  -8.1484725774048E-01
(PID.TID 0000.0001) %MON dynstat_uvel_mean            =   1.3837496479741E-03
(PID.TID 0000.0001) %MON dynstat_uvel_sd              =   2.1540304412104E-02
(PID.TID 0000.0001) %MON dynstat_uvel_del2            =   1.3204825150761E-05
(PID.TID 0000.0001) %MON dynstat_vvel_max             =   1.3141050214422E+00
(PID.TID 0000.0001) %MON dynstat_vvel_min             =  -9.8297594100800E-01
(PID.TID 0000.0001) %MON dynstat_vvel_mean            =   1.1896710715287E-03
(PID.TID 0000.0001) %MON dynstat_vvel_sd              =   2.4081163931595E-02
(PID.TID 0000.0001) %MON dynstat_vvel_del2            =   1.3541935418716E-05
(PID.TID 0000.0001) %MON dynstat_wvel_max             =   5.8567319777750E-04
(PID.TID 0000.0001) %MON dynstat_wvel_min             =  -1.3530237620102E-03
(PID.TID 0000.0001) %MON dynstat_wvel_mean            =  -4.6452274355761E-11
(PID.TID 0000.0001) %MON dynstat_wvel_sd              =   2.5827122177242E-05
(PID.TID 0000.0001) %MON dynstat_wvel_del2            =   2.5391597532974E-08
(PID.TID 0000.0001) %MON dynstat_theta_max            =   3.2641508813115E+01
(PID.TID 0000.0001) %MON dynstat_theta_min            =  -2.0417021713444E+00
(PID.TID 0000.0001) %MON dynstat_theta_mean           =   3.5907225962012E+00
(PID.TID 0000.0001) %MON dynstat_theta_sd             =   4.4364502683137E+00
(PID.TID 0000.0001) %MON dynstat_theta_del2           =   1.0520291773024E-04
(PID.TID 0000.0001) %MON dynstat_salt_max             =   4.0711406970965E+01
(PID.TID 0000.0001) %MON dynstat_salt_min             =   1.7535023507892E+01
(PID.TID 0000.0001) %MON dynstat_salt_mean            =   3.4725698966261E+01
(PID.TID 0000.0001) %MON dynstat_salt_sd              =   3.7884412048840E-01
(PID.TID 0000.0001) %MON dynstat_salt_del2            =   2.5558064897690E-05
(PID.TID 0000.0001) %MON dynstat_sst_max              =   3.2641501641923E+01
(PID.TID 0000.0001) %MON dynstat_sst_min              =  -1.9610252357528E+00
(PID.TID 0000.0001) %MON dynstat_sst_mean             =   1.8529949231349E+01
(PID.TID 0000.0001) %MON dynstat_sst_sd               =   1.0059070718555E+01
(PID.TID 0000.0001) %MON dynstat_sst_del2             =   8.8589121545783E-04
(PID.TID 0000.0001) %MON dynstat_sss_max              =   3.9728441721133E+01
(PID.TID 0000.0001) %MON dynstat_sss_min              =   1.7535023507892E+01
(PID.TID 0000.0001) %MON dynstat_sss_mean             =   3.4723225191292E+01
(PID.TID 0000.0001) %MON dynstat_sss_sd               =   1.2178883269923E+00
(PID.TID 0000.0001) %MON dynstat_sss_del2             =   3.8984294902130E-04
(PID.TID 0000.0001) %MON forcing_qnet_max             =   8.6104708287400E+02
(PID.TID 0000.0001) %MON forcing_qnet_min             =  -6.0471320789259E+02
(PID.TID 0000.0001) %MON forcing_qnet_mean            =  -2.5626400714292E+01
(PID.TID 0000.0001) %MON forcing_qnet_sd              =   2.1385500644657E+02
(PID.TID 0000.0001) %MON forcing_qnet_del2            =   1.4749366095195E-01
(PID.TID 0000.0001) %MON forcing_qsw_max              =   2.5726848252581E+01
(PID.TID 0000.0001) %MON forcing_qsw_min              =  -7.2740982231326E+02
(PID.TID 0000.0001) %MON forcing_qsw_mean             =  -2.0214970045304E+02
(PID.TID 0000.0001) %MON forcing_qsw_sd               =   1.8514044354379E+02
(PID.TID 0000.0001) %MON forcing_qsw_del2             =   8.0300976897840E-02
(PID.TID 0000.0001) %MON forcing_empmr_max            =   1.5848779866012E-03
(PID.TID 0000.0001) %MON forcing_empmr_min            =  -2.1151987490458E-03
(PID.TID 0000.0001) %MON forcing_empmr_mean           =   4.7932293885310E-06
(PID.TID 0000.0001) %MON forcing_empmr_sd             =   1.0246406107903E-04
(PID.TID 0000.0001) %MON forcing_empmr_del2           =   4.2410211282422E-07
(PID.TID 0000.0001) %MON forcing_fu_max               =   8.5263907909394E-01
(PID.TID 0000.0001) %MON forcing_fu_min               =  -2.0213873516173E+00
(PID.TID 0000.0001) %MON forcing_fu_mean              =   1.0022562223550E-02
(PID.TID 0000.0001) %MON forcing_fu_sd                =   1.1538257808946E-01
(PID.TID 0000.0001) %MON forcing_fu_del2              =   9.7833245078477E-05
(PID.TID 0000.0001) %MON forcing_fv_max               =   1.0085132294614E+00
(PID.TID 0000.0001) %MON forcing_fv_min               =  -1.2724195680629E+00
(PID.TID 0000.0001) %MON forcing_fv_mean              =  -5.9525991165459E-06
(PID.TID 0000.0001) %MON forcing_fv_sd                =   1.1200702269445E-01
(PID.TID 0000.0001) %MON forcing_fv_del2              =   9.8584713689582E-05
(PID.TID 0000.0001) %MON trAdv_CFL_u_max              =   6.8638063960951E-02
(PID.TID 0000.0001) %MON trAdv_CFL_v_max              =   6.2702559416933E-02
(PID.TID 0000.0001) %MON trAdv_CFL_w_max              =   2.1840271811824E-01
(PID.TID 0000.0001) %MON advcfl_uvel_max              =   7.0202799109105E-02
(PID.TID 0000.0001) %MON advcfl_vvel_max              =   6.0053449407048E-02
(PID.TID 0000.0001) %MON advcfl_wvel_max              =   2.1951857565577E-01
(PID.TID 0000.0001) %MON advcfl_W_hf_max              =   2.2912087108825E-01
(PID.TID 0000.0001) %MON pe_b_mean                    =   4.2471931566257E-04
(PID.TID 0000.0001) %MON ke_max                       =   8.7575696367657E-01
(PID.TID 0000.0001) %MON ke_mean                      =   5.0496720962605E-04
(PID.TID 0000.0001) %MON ke_vol                       =   1.3349969359573E+18
(PID.TID 0000.0001) %MON vort_r_min                   =  -2.6109563155948E-05
(PID.TID 0000.0001) %MON vort_r_max                   =   2.4312276301161E-05
(PID.TID 0000.0001) %MON vort_a_mean                  =  -1.9727864647440E-05
(PID.TID 0000.0001) %MON vort_a_sd                    =   7.4543266290352E-05
(PID.TID 0000.0001) %MON vort_p_mean                  =  -2.1760540573382E-05
(PID.TID 0000.0001) %MON vort_p_sd                    =   9.7244210315628E-05
(PID.TID 0000.0001) %MON surfExpan_theta_mean         =   3.4997603818932E-08
(PID.TID 0000.0001) %MON surfExpan_salt_mean          =   2.6648015539085E-08
(PID.TID 0000.0001) // =======================================================
(PID.TID 0000.0001) // End MONITOR dynamic field statistics
(PID.TID 0000.0001) // =======================================================
(PID.TID 0000.0001) // =======================================================
(PID.TID 0000.0001) // Begin MONITOR SEAICE statistics
(PID.TID 0000.0001) // =======================================================
(PID.TID 0000.0001) %MON seaice_tsnumber              =                    60
(PID.TID 0000.0001) %MON seaice_time_sec              =   2.1600000000000E+05
(PID.TID 0000.0001) %MON seaice_uice_max              =   4.0000000000000E-01
(PID.TID 0000.0001) %MON seaice_uice_min              =  -4.0000000000000E-01
(PID.TID 0000.0001) %MON seaice_uice_mean             =   6.8507921388878E-03
(PID.TID 0000.0001) %MON seaice_uice_sd               =   1.9494752267978E-01
(PID.TID 0000.0001) %MON seaice_uice_del2             =   1.8438915936805E-04
(PID.TID 0000.0001) %MON seaice_vice_max              =   4.0000000000000E-01
(PID.TID 0000.0001) %MON seaice_vice_min              =  -4.0000000000000E-01
(PID.TID 0000.0001) %MON seaice_vice_mean             =  -5.6141970937430E-03
(PID.TID 0000.0001) %MON seaice_vice_sd               =   1.9924775868505E-01
(PID.TID 0000.0001) %MON seaice_vice_del2             =   1.9729597346280E-04
(PID.TID 0000.0001) %MON seaice_area_max              =   9.5000000000000E-01
(PID.TID 0000.0001) %MON seaice_area_min              =   0.0000000000000E+00
(PID.TID 0000.0001) %MON seaice_area_mean             =   3.8259915880258E-02
(PID.TID 0000.0001) %MON seaice_area_sd               =   1.7722755424553E-01
(PID.TID 0000.0001) %MON seaice_area_del2             =   2.6352366678394E-04
(PID.TID 0000.0001) %MON seaice_heff_max              =   3.9854200481745E+00
(PID.TID 0000.0001) %MON seaice_heff_min              =   0.0000000000000E+00
(PID.TID 0000.0001) %MON seaice_heff_mean             =   5.3623614581205E-02
(PID.TID 0000.0001) %MON seaice_heff_sd               =   3.0852101882247E-01
(PID.TID 0000.0001) %MON seaice_heff_del2             =   2.9627724341710E-04
(PID.TID 0000.0001) %MON seaice_hsnow_max             =   9.6164504500260E-01
(PID.TID 0000.0001) %MON seaice_hsnow_min             =  -2.6984862344648E-05
(PID.TID 0000.0001) %MON seaice_hsnow_mean            =   5.2063517347062E-03
(PID.TID 0000.0001) %MON seaice_hsnow_sd              =   3.1415648038866E-02
(PID.TID 0000.0001) %MON seaice_hsnow_del2            =   5.3304760281080E-05
(PID.TID 0000.0001) // =======================================================
(PID.TID 0000.0001) // End MONITOR SEAICE statistics
(PID.TID 0000.0001) // =======================================================
(PID.TID 0000.0001) // =======================================================
(PID.TID 0000.0001) // Begin MONITOR EXF statistics
(PID.TID 0000.0001) // =======================================================
(PID.TID 0000.0001) %MON exf_tsnumber                 =                    60
(PID.TID 0000.0001) %MON exf_time_sec                 =   2.1600000000000E+05
(PID.TID 0000.0001) %MON exf_ustress_max              =   1.0753945112229E+00
(PID.TID 0000.0001) %MON exf_ustress_min              =  -1.5736781378309E+00
(PID.TID 0000.0001) %MON exf_ustress_mean             =   1.0502656730108E-02
(PID.TID 0000.0001) %MON exf_ustress_sd               =   1.0990945973612E-01
(PID.TID 0000.0001) %MON exf_ustress_del2             =   9.5187289208734E-05
(PID.TID 0000.0001) %MON exf_vstress_max              =   8.2707938551903E-01
(PID.TID 0000.0001) %MON exf_vstress_min              =  -9.5322232092726E-01
(PID.TID 0000.0001) %MON exf_vstress_mean             =  -3.1230239484830E-04
(PID.TID 0000.0001) %MON exf_vstress_sd               =   1.0617366889260E-01
(PID.TID 0000.0001) %MON exf_vstress_del2             =   8.3129699205268E-05
(PID.TID 0000.0001) %MON exf_hflux_max                =   1.0449417548581E+03
(PID.TID 0000.0001) %MON exf_hflux_min                =  -5.8016344072117E+02
(PID.TID 0000.0001) %MON exf_hflux_mean               =  -7.7240619509890E+00
(PID.TID 0000.0001) %MON exf_hflux_sd                 =   2.2880458471126E+02
(PID.TID 0000.0001) %MON exf_hflux_del2               =   4.3254637849213E-01
(PID.TID 0000.0001) %MON exf_sflux_max                =   2.5068799491376E-07
(PID.TID 0000.0001) %MON exf_sflux_min                =  -2.0981658347708E-06
(PID.TID 0000.0001) %MON exf_sflux_mean               =   5.6868745427171E-09
(PID.TID 0000.0001) %MON exf_sflux_sd                 =   8.4281304601138E-08
(PID.TID 0000.0001) %MON exf_sflux_del2               =   2.0108103340455E-10
(PID.TID 0000.0001) %MON exf_wspeed_max               =   2.0227460861206E+01
(PID.TID 0000.0001) %MON exf_wspeed_min               =   2.5240625441074E-01
(PID.TID 0000.0001) %MON exf_wspeed_mean              =   6.8664523047760E+00
(PID.TID 0000.0001) %MON exf_wspeed_sd                =   3.0951588786696E+00
(PID.TID 0000.0001) %MON exf_wspeed_del2              =   1.2001717469668E-02
(PID.TID 0000.0001) %MON exf_atemp_max                =   3.0555942096710E+02
(PID.TID 0000.0001) %MON exf_atemp_min                =   2.2639788665771E+02
(PID.TID 0000.0001) %MON exf_atemp_mean               =   2.8911345911083E+02
(PID.TID 0000.0001) %MON exf_atemp_sd                 =   1.2390180559740E+01
(PID.TID 0000.0001) %MON exf_atemp_del2               =   2.6471017891650E-02
(PID.TID 0000.0001) %MON exf_aqh_max                  =   2.1751707419753E-02
(PID.TID 0000.0001) %MON exf_aqh_min                  =   6.3223584220395E-05
(PID.TID 0000.0001) %MON exf_aqh_mean                 =   1.0892269484336E-02
(PID.TID 0000.0001) %MON exf_aqh_sd                   =   5.6490728191697E-03
(PID.TID 0000.0001) %MON exf_aqh_del2                 =   1.4552871512113E-05
(PID.TID 0000.0001) %MON exf_lwflux_max               =   2.1906410572090E+02
(PID.TID 0000.0001) %MON exf_lwflux_min               =  -2.0364312062642E+01
(PID.TID 0000.0001) %MON exf_lwflux_mean              =   4.9162280234356E+01
(PID.TID 0000.0001) %MON exf_lwflux_sd                =   2.9028835770723E+01
(PID.TID 0000.0001) %MON exf_lwflux_del2              =   1.0157891671599E-01
(PID.TID 0000.0001) %MON exf_evap_max                 =   2.5566604697808E-07
(PID.TID 0000.0001) %MON exf_evap_min                 =  -2.2696962297908E-08
(PID.TID 0000.0001) %MON exf_evap_mean                =   4.5499277613351E-08
(PID.TID 0000.0001) %MON exf_evap_sd                  =   2.8644182938298E-08
(PID.TID 0000.0001) %MON exf_evap_del2                =   7.4859857006372E-11
(PID.TID 0000.0001) %MON exf_precip_max               =   1.6898188164305E-06
(PID.TID 0000.0001) %MON exf_precip_min               =  -1.6101679989333E-08
(PID.TID 0000.0001) %MON exf_precip_mean              =   3.6792579473548E-08
(PID.TID 0000.0001) %MON exf_precip_sd                =   7.6569663467135E-08
(PID.TID 0000.0001) %MON exf_precip_del2              =   1.9939145080807E-10
(PID.TID 0000.0001) %MON exf_swflux_max               =   2.5741568905635E+01
(PID.TID 0000.0001) %MON exf_swflux_min               =  -7.0131080847385E+02
(PID.TID 0000.0001) %MON exf_swflux_mean              =  -2.0099587267299E+02
(PID.TID 0000.0001) %MON exf_swflux_sd                =   1.7251015717320E+02
(PID.TID 0000.0001) %MON exf_swflux_del2              =   3.6783195565181E-01
(PID.TID 0000.0001) %MON exf_swdown_max               =   7.5752972412109E+02
(PID.TID 0000.0001) %MON exf_swdown_min               =  -3.4496582031250E+01
(PID.TID 0000.0001) %MON exf_swdown_mean              =   2.1795627102150E+02
(PID.TID 0000.0001) %MON exf_swdown_sd                =   1.8630382915596E+02
(PID.TID 0000.0001) %MON exf_swdown_del2              =   3.9918665121806E-01
(PID.TID 0000.0001) %MON exf_lwdown_max               =   4.6043304443359E+02
(PID.TID 0000.0001) %MON exf_lwdown_min               =   8.0834518432617E+01
(PID.TID 0000.0001) %MON exf_lwdown_mean              =   3.6260154615051E+02
(PID.TID 0000.0001) %MON exf_lwdown_sd                =   6.5615105864387E+01
(PID.TID 0000.0001) %MON exf_lwdown_del2              =   4.8386162936108E-01
(PID.TID 0000.0001) %MON exf_runoff_max               =   2.1159345204714E-06
(PID.TID 0000.0001) %MON exf_runoff_min               =   0.0000000000000E+00
(PID.TID 0000.0001) %MON exf_runoff_mean              =   3.0198235970851E-09
(PID.TID 0000.0001) %MON exf_runoff_sd                =   2.4701697942111E-08
(PID.TID 0000.0001) %MON exf_runoff_del2              =   1.8392369493413E-11
(PID.TID 0000.0001) // =======================================================
(PID.TID 0000.0001) // End MONITOR EXF statistics
(PID.TID 0000.0001) // =======================================================
 SEAICE_LSR: Residual Initial ipass,Uice,Vice=    1  1.38107900E-01  1.70976935E-01
 SEAICE_LSR: Residual FrDrift U_fd,V_fd=  7.08082906E+01  8.13646794E+01
 SEAICE_LSR (ipass=   1) iters,dU,Resid=   180  1.98377497E-04  1.17774326E-03
 SEAICE_LSR (ipass=   1) iters,dV,Resid=   180  3.74428030E-05  3.50558126E-03
 SEAICE_LSR: Residual Initial ipass,Uice,Vice=    2  7.30452847E-01  1.54919144E-01
 SEAICE_LSR: Residual FrDrift U_fd,V_fd=  7.06616758E+01  8.12140791E+01
 SEAICE_LSR (ipass=   2) iters,dU,Resid=    74  8.16948936E-05  1.36319989E-03
 SEAICE_LSR (ipass=   2) iters,dV,Resid=    74  1.94921461E-04  3.31416820E-03
 cg2d: Sum(rhs),rhsMax =   5.26212525530321E+00  4.13886759325615E-01
 cg2d: Sum(rhs),rhsMax =   5.30105133122259E+00  4.15664647501604E-01
(PID.TID 0000.0001)      cg2d_init_res =   2.89896714839975E-01
(PID.TID 0000.0001)      cg2d_iters(min,last) =      -1      89
(PID.TID 0000.0001)      cg2d_last_res =   7.08818820059239E-06
(PID.TID 0000.0001) // =======================================================
(PID.TID 0000.0001) // Begin MONITOR dynamic field statistics
(PID.TID 0000.0001) // =======================================================
(PID.TID 0000.0001) %MON time_tsnumber                =                    62
(PID.TID 0000.0001) %MON time_secondsf                =   2.2320000000000E+05
(PID.TID 0000.0001) %MON dynstat_eta_max              =   1.7576132526716E+00
(PID.TID 0000.0001) %MON dynstat_eta_min              =  -4.0507235025995E+00
(PID.TID 0000.0001) %MON dynstat_eta_mean             =  -2.6830269446586E-03
(PID.TID 0000.0001) %MON dynstat_eta_sd               =   7.4127879944135E-01
(PID.TID 0000.0001) %MON dynstat_eta_del2             =   2.8534285703517E-04
(PID.TID 0000.0001) %MON dynstat_uvel_max             =   1.0028160103191E+00
(PID.TID 0000.0001) %MON dynstat_uvel_min             =  -8.1250600632771E-01
(PID.TID 0000.0001) %MON dynstat_uvel_mean            =   1.3883867072530E-03
(PID.TID 0000.0001) %MON dynstat_uvel_sd              =   2.1523465995321E-02
(PID.TID 0000.0001) %MON dynstat_uvel_del2            =   1.3158758338548E-05
(PID.TID 0000.0001) %MON dynstat_vvel_max             =   1.3210388749576E+00
(PID.TID 0000.0001) %MON dynstat_vvel_min             =  -9.9371219882454E-01
(PID.TID 0000.0001) %MON dynstat_vvel_mean            =   1.1759754996611E-03
(PID.TID 0000.0001) %MON dynstat_vvel_sd              =   2.4079733055661E-02
(PID.TID 0000.0001) %MON dynstat_vvel_del2            =   1.3502851745842E-05
(PID.TID 0000.0001) %MON dynstat_wvel_max             =   5.7353376222986E-04
(PID.TID 0000.0001) %MON dynstat_wvel_min             =  -1.3416691556729E-03
(PID.TID 0000.0001) %MON dynstat_wvel_mean            =   1.0626214923725E-09
(PID.TID 0000.0001) %MON dynstat_wvel_sd              =   2.5713501023869E-05
(PID.TID 0000.0001) %MON dynstat_wvel_del2            =   2.5152837835094E-08
(PID.TID 0000.0001) %MON dynstat_theta_max            =   3.2670752051843E+01
(PID.TID 0000.0001) %MON dynstat_theta_min            =  -2.0416839485946E+00
(PID.TID 0000.0001) %MON dynstat_theta_mean           =   3.5907327452119E+00
(PID.TID 0000.0001) %MON dynstat_theta_sd             =   4.4364823671242E+00
(PID.TID 0000.0001) %MON dynstat_theta_del2           =   1.0521335946898E-04
(PID.TID 0000.0001) %MON dynstat_salt_max             =   4.0711402727556E+01
(PID.TID 0000.0001) %MON dynstat_salt_min             =   1.7537169988057E+01
(PID.TID 0000.0001) %MON dynstat_salt_mean            =   3.4725699313101E+01
(PID.TID 0000.0001) %MON dynstat_salt_sd              =   3.7884204652363E-01
(PID.TID 0000.0001) %MON dynstat_salt_del2            =   2.5556803037215E-05
(PID.TID 0000.0001) %MON dynstat_sst_max              =   3.2670752051843E+01
(PID.TID 0000.0001) %MON dynstat_sst_min              =  -1.9610428416279E+00
(PID.TID 0000.0001) %MON dynstat_sst_mean             =   1.8531196290817E+01
(PID.TID 0000.0001) %MON dynstat_sst_sd               =   1.0059406005718E+01
(PID.TID 0000.0001) %MON dynstat_sst_del2             =   8.8736820994599E-04
(PID.TID 0000.0001) %MON dynstat_sss_max              =   3.9730032942168E+01
(PID.TID 0000.0001) %MON dynstat_sss_min              =   1.7537169988057E+01
(PID.TID 0000.0001) %MON dynstat_sss_mean             =   3.4723346077364E+01
(PID.TID 0000.0001) %MON dynstat_sss_sd               =   1.2178546486132E+00
(PID.TID 0000.0001) %MON dynstat_sss_del2             =   3.8986031523292E-04
(PID.TID 0000.0001) %MON forcing_qnet_max             =   8.8510565150434E+02
(PID.TID 0000.0001) %MON forcing_qnet_min             =  -6.4416045601763E+02
(PID.TID 0000.0001) %MON forcing_qnet_mean            =  -2.0631506441425E+01
(PID.TID 0000.0001) %MON forcing_qnet_sd              =   2.0289178845265E+02
(PID.TID 0000.0001) %MON forcing_qnet_del2            =   1.4666539987606E-01
(PID.TID 0000.0001) %MON forcing_qsw_max              =   2.5756332551724E+01
(PID.TID 0000.0001) %MON forcing_qsw_min              =  -7.2797336022713E+02
(PID.TID 0000.0001) %MON forcing_qsw_mean             =  -1.9690446808106E+02
(PID.TID 0000.0001) %MON forcing_qsw_sd               =   1.7691588194217E+02
(PID.TID 0000.0001) %MON forcing_qsw_del2             =   7.9117747630340E-02
(PID.TID 0000.0001) %MON forcing_empmr_max            =   1.6181594924908E-03
(PID.TID 0000.0001) %MON forcing_empmr_min            =  -2.0809395551441E-03
(PID.TID 0000.0001) %MON forcing_empmr_mean           =   5.6314019108622E-06
(PID.TID 0000.0001) %MON forcing_empmr_sd             =   1.0018984665956E-04
(PID.TID 0000.0001) %MON forcing_empmr_del2           =   4.1915402747744E-07
(PID.TID 0000.0001) %MON forcing_fu_max               =   8.1370908021927E-01
(PID.TID 0000.0001) %MON forcing_fu_min               =  -2.0662634556155E+00
(PID.TID 0000.0001) %MON forcing_fu_mean              =   9.6424821758728E-03
(PID.TID 0000.0001) %MON forcing_fu_sd                =   1.1499418192203E-01
(PID.TID 0000.0001) %MON forcing_fu_del2              =   9.6851619191486E-05
(PID.TID 0000.0001) %MON forcing_fv_max               =   1.0172084386829E+00
(PID.TID 0000.0001) %MON forcing_fv_min               =  -1.2341685838073E+00
(PID.TID 0000.0001) %MON forcing_fv_mean              =   2.2826241280655E-04
(PID.TID 0000.0001) %MON forcing_fv_sd                =   1.1267683300663E-01
(PID.TID 0000.0001) %MON forcing_fv_del2              =   9.8028804285338E-05
(PID.TID 0000.0001) %MON trAdv_CFL_u_max              =   6.9104267356515E-02
(PID.TID 0000.0001) %MON trAdv_CFL_v_max              =   6.5790930694989E-02
(PID.TID 0000.0001) %MON trAdv_CFL_w_max              =   2.1705318368440E-01
(PID.TID 0000.0001) %MON advcfl_uvel_max              =   7.0476416704355E-02
(PID.TID 0000.0001) %MON advcfl_vvel_max              =   5.9464482369599E-02
(PID.TID 0000.0001) %MON advcfl_wvel_max              =   2.1774980886830E-01
(PID.TID 0000.0001) %MON advcfl_W_hf_max              =   2.2777125150524E-01
(PID.TID 0000.0001) %MON pe_b_mean                    =   4.2432187682423E-04
(PID.TID 0000.0001) %MON ke_max                       =   8.8622099981750E-01
(PID.TID 0000.0001) %MON ke_mean                      =   5.0457496673012E-04
(PID.TID 0000.0001) %MON ke_vol                       =   1.3349969234319E+18
(PID.TID 0000.0001) %MON vort_r_min                   =  -2.6004265272769E-05
(PID.TID 0000.0001) %MON vort_r_max                   =   2.3455369962343E-05
(PID.TID 0000.0001) %MON vort_a_mean                  =  -1.9727864647440E-05
(PID.TID 0000.0001) %MON vort_a_sd                    =   7.4543260728824E-05
(PID.TID 0000.0001) %MON vort_p_mean                  =  -2.1760540776567E-05
(PID.TID 0000.0001) %MON vort_p_sd                    =   9.7244340511612E-05
(PID.TID 0000.0001) %MON surfExpan_theta_mean         =   5.3066933576341E-08
(PID.TID 0000.0001) %MON surfExpan_salt_mean          =   2.5160494105040E-08
(PID.TID 0000.0001) // =======================================================
(PID.TID 0000.0001) // End MONITOR dynamic field statistics
(PID.TID 0000.0001) // =======================================================
(PID.TID 0000.0001) // =======================================================
(PID.TID 0000.0001) // Begin MONITOR SEAICE statistics
(PID.TID 0000.0001) // =======================================================
(PID.TID 0000.0001) %MON seaice_tsnumber              =                    62
(PID.TID 0000.0001) %MON seaice_time_sec              =   2.2320000000000E+05
(PID.TID 0000.0001) %MON seaice_uice_max              =   4.0000000000000E-01
(PID.TID 0000.0001) %MON seaice_uice_min              =  -4.0000000000000E-01
(PID.TID 0000.0001) %MON seaice_uice_mean             =   6.6704901587946E-03
(PID.TID 0000.0001) %MON seaice_uice_sd               =   1.9510689593333E-01
(PID.TID 0000.0001) %MON seaice_uice_del2             =   1.8403923200077E-04
(PID.TID 0000.0001) %MON seaice_vice_max              =   4.0000000000000E-01
(PID.TID 0000.0001) %MON seaice_vice_min              =  -4.0000000000000E-01
(PID.TID 0000.0001) %MON seaice_vice_mean             =  -5.2471619816460E-03
(PID.TID 0000.0001) %MON seaice_vice_sd               =   2.0001027083305E-01
(PID.TID 0000.0001) %MON seaice_vice_del2             =   1.9418432120399E-04
(PID.TID 0000.0001) %MON seaice_area_max              =   9.5000000000000E-01
(PID.TID 0000.0001) %MON seaice_area_min              =   0.0000000000000E+00
(PID.TID 0000.0001) %MON seaice_area_mean             =   3.8226903959655E-02
(PID.TID 0000.0001) %MON seaice_area_sd               =   1.7716382936702E-01
(PID.TID 0000.0001) %MON seaice_area_del2             =   2.6208361798509E-04
(PID.TID 0000.0001) %MON seaice_heff_max              =   3.9744504050754E+00
(PID.TID 0000.0001) %MON seaice_heff_min              =   0.0000000000000E+00
(PID.TID 0000.0001) %MON seaice_heff_mean             =   5.3631105135400E-02
(PID.TID 0000.0001) %MON seaice_heff_sd               =   3.0867042649063E-01
(PID.TID 0000.0001) %MON seaice_heff_del2             =   2.9664396030835E-04
(PID.TID 0000.0001) %MON seaice_hsnow_max             =   9.6087379230723E-01
(PID.TID 0000.0001) %MON seaice_hsnow_min             =  -3.1550362564949E-05
(PID.TID 0000.0001) %MON seaice_hsnow_mean            =   5.2044114474055E-03
(PID.TID 0000.0001) %MON seaice_hsnow_sd              =   3.1412932585572E-02
(PID.TID 0000.0001) %MON seaice_hsnow_del2            =   5.3333513079082E-05
(PID.TID 0000.0001) // =======================================================
(PID.TID 0000.0001) // End MONITOR SEAICE statistics
(PID.TID 0000.0001) // =======================================================
(PID.TID 0000.0001) // =======================================================
(PID.TID 0000.0001) // Begin MONITOR EXF statistics
(PID.TID 0000.0001) // =======================================================
(PID.TID 0000.0001) %MON exf_tsnumber                 =                    62
(PID.TID 0000.0001) %MON exf_time_sec                 =   2.2320000000000E+05
(PID.TID 0000.0001) %MON exf_ustress_max              =   1.0779755512874E+00
(PID.TID 0000.0001) %MON exf_ustress_min              =  -1.6313076793049E+00
(PID.TID 0000.0001) %MON exf_ustress_mean             =   1.0104606194173E-02
(PID.TID 0000.0001) %MON exf_ustress_sd               =   1.1250560306163E-01
(PID.TID 0000.0001) %MON exf_ustress_del2             =   1.0258720872518E-04
(PID.TID 0000.0001) %MON exf_vstress_max              =   8.4825006127358E-01
(PID.TID 0000.0001) %MON exf_vstress_min              =  -9.3931038460124E-01
(PID.TID 0000.0001) %MON exf_vstress_mean             =  -3.5996057520438E-05
(PID.TID 0000.0001) %MON exf_vstress_sd               =   1.0912169034607E-01
(PID.TID 0000.0001) %MON exf_vstress_del2             =   8.8902399474642E-05
(PID.TID 0000.0001) %MON exf_hflux_max                =   1.0834287057715E+03
(PID.TID 0000.0001) %MON exf_hflux_min                =  -6.9437924220163E+02
(PID.TID 0000.0001) %MON exf_hflux_mean               =  -2.5753505062932E+00
(PID.TID 0000.0001) %MON exf_hflux_sd                 =   2.4594115089702E+02
(PID.TID 0000.0001) %MON exf_hflux_del2               =   4.4686750398229E-01
(PID.TID 0000.0001) %MON exf_sflux_max                =   2.6336562313597E-07
(PID.TID 0000.0001) %MON exf_sflux_min                =  -2.1134085393932E-06
(PID.TID 0000.0001) %MON exf_sflux_mean               =   6.5181098850720E-09
(PID.TID 0000.0001) %MON exf_sflux_sd                 =   8.5546520048296E-08
(PID.TID 0000.0001) %MON exf_sflux_del2               =   2.1676570537769E-10
(PID.TID 0000.0001) %MON exf_wspeed_max               =   2.4900196949641E+01
(PID.TID 0000.0001) %MON exf_wspeed_min               =   2.3309209446112E-01
(PID.TID 0000.0001) %MON exf_wspeed_mean              =   6.8797711895614E+00
(PID.TID 0000.0001) %MON exf_wspeed_sd                =   3.1666263306110E+00
(PID.TID 0000.0001) %MON exf_wspeed_del2              =   1.2133947535221E-02
(PID.TID 0000.0001) %MON exf_atemp_max                =   3.0622802995046E+02
(PID.TID 0000.0001) %MON exf_atemp_min                =   2.2712548166911E+02
(PID.TID 0000.0001) %MON exf_atemp_mean               =   2.8913554540117E+02
(PID.TID 0000.0001) %MON exf_atemp_sd                 =   1.2399920877850E+01
(PID.TID 0000.0001) %MON exf_atemp_del2               =   2.6503644342234E-02
(PID.TID 0000.0001) %MON exf_aqh_max                  =   2.2197951252262E-02
(PID.TID 0000.0001) %MON exf_aqh_min                  =   5.9887423049076E-05
(PID.TID 0000.0001) %MON exf_aqh_mean                 =   1.0912081688236E-02
(PID.TID 0000.0001) %MON exf_aqh_sd                   =   5.6685018463530E-03
(PID.TID 0000.0001) %MON exf_aqh_del2                 =   1.4597430205421E-05
(PID.TID 0000.0001) %MON exf_lwflux_max               =   2.1797463530439E+02
(PID.TID 0000.0001) %MON exf_lwflux_min               =  -2.0893634974659E+01
(PID.TID 0000.0001) %MON exf_lwflux_mean              =   4.9382110477109E+01
(PID.TID 0000.0001) %MON exf_lwflux_sd                =   2.9484156446878E+01
(PID.TID 0000.0001) %MON exf_lwflux_del2              =   1.0281971192597E-01
(PID.TID 0000.0001) %MON exf_evap_max                 =   2.6836866125691E-07
(PID.TID 0000.0001) %MON exf_evap_min                 =  -3.2980917707639E-08
(PID.TID 0000.0001) %MON exf_evap_mean                =   4.5424522625631E-08
(PID.TID 0000.0001) %MON exf_evap_sd                  =   2.9010255752261E-08
(PID.TID 0000.0001) %MON exf_evap_del2                =   7.5577337643114E-11
(PID.TID 0000.0001) %MON exf_precip_max               =   2.1328635284590E-06
(PID.TID 0000.0001) %MON exf_precip_min               =  -1.6175896178083E-08
(PID.TID 0000.0001) %MON exf_precip_mean              =   3.5887493569101E-08
(PID.TID 0000.0001) %MON exf_precip_sd                =   7.7797910462489E-08
(PID.TID 0000.0001) %MON exf_precip_del2              =   2.1497271896852E-10
(PID.TID 0000.0001) %MON exf_swflux_max               =   3.4768099013939E+01
(PID.TID 0000.0001) %MON exf_swflux_min               =  -7.8173755806065E+02
(PID.TID 0000.0001) %MON exf_swflux_mean              =  -1.9570831584828E+02
(PID.TID 0000.0001) %MON exf_swflux_sd                =   1.9851792709406E+02
(PID.TID 0000.0001) %MON exf_swflux_del2              =   3.8279172238678E-01
(PID.TID 0000.0001) %MON exf_swdown_max               =   8.4274990844727E+02
(PID.TID 0000.0001) %MON exf_swdown_min               =  -3.8292000134786E+01
(PID.TID 0000.0001) %MON exf_swdown_mean              =   2.1219612732065E+02
(PID.TID 0000.0001) %MON exf_swdown_sd                =   2.1456992994736E+02
(PID.TID 0000.0001) %MON exf_swdown_del2              =   4.1519858534827E-01
(PID.TID 0000.0001) %MON exf_lwdown_max               =   4.6308227030436E+02
(PID.TID 0000.0001) %MON exf_lwdown_min               =   8.1957697550456E+01
(PID.TID 0000.0001) %MON exf_lwdown_mean              =   3.6238216860094E+02
(PID.TID 0000.0001) %MON exf_lwdown_sd                =   6.5983846286412E+01
(PID.TID 0000.0001) %MON exf_lwdown_del2              =   4.8347852239942E-01
(PID.TID 0000.0001) %MON exf_runoff_max               =   2.1190886792694E-06
(PID.TID 0000.0001) %MON exf_runoff_min               =   0.0000000000000E+00
(PID.TID 0000.0001) %MON exf_runoff_mean              =   3.0189191714589E-09
(PID.TID 0000.0001) %MON exf_runoff_sd                =   2.4731402784732E-08
(PID.TID 0000.0001) %MON exf_runoff_del2              =   1.8403391027030E-11
(PID.TID 0000.0001) // =======================================================
(PID.TID 0000.0001) // End MONITOR EXF statistics
(PID.TID 0000.0001) // =======================================================
 SEAICE_LSR: Residual Initial ipass,Uice,Vice=    1  1.43523711E-01  1.74707916E-01
 SEAICE_LSR: Residual FrDrift U_fd,V_fd=  6.74878583E+01  8.11514049E+01
 SEAICE_LSR (ipass=   1) iters,dU,Resid=   186  1.95710848E-04  1.09101422E-03
 SEAICE_LSR (ipass=   1) iters,dV,Resid=   186  6.43058899E-05  3.56677744E-03
 SEAICE_LSR: Residual Initial ipass,Uice,Vice=    2  6.78635741E-01  1.53652519E-01
 SEAICE_LSR: Residual FrDrift U_fd,V_fd=  6.71962070E+01  8.10293675E+01
 SEAICE_LSR (ipass=   2) iters,dU,Resid=    80  4.88672718E-05  1.09599515E-03
 SEAICE_LSR (ipass=   2) iters,dV,Resid=    80  1.97324400E-04  3.43847647E-03
 cg2d: Sum(rhs),rhsMax =   5.34305740991400E+00  4.18243709181676E-01
 cg2d: Sum(rhs),rhsMax =   5.38838554191835E+00  4.19846151867456E-01
(PID.TID 0000.0001)      cg2d_init_res =   3.13403115420910E-01
(PID.TID 0000.0001)      cg2d_iters(min,last) =      -1      91
(PID.TID 0000.0001)      cg2d_last_res =   7.03853976472602E-06
(PID.TID 0000.0001) // =======================================================
(PID.TID 0000.0001) // Begin MONITOR dynamic field statistics
(PID.TID 0000.0001) // =======================================================
(PID.TID 0000.0001) %MON time_tsnumber                =                    64
(PID.TID 0000.0001) %MON time_secondsf                =   2.3040000000000E+05
(PID.TID 0000.0001) %MON dynstat_eta_max              =   1.7102753797580E+00
(PID.TID 0000.0001) %MON dynstat_eta_min              =  -4.0588061072037E+00
(PID.TID 0000.0001) %MON dynstat_eta_mean             =  -2.7272295048390E-03
(PID.TID 0000.0001) %MON dynstat_eta_sd               =   7.4116034033332E-01
(PID.TID 0000.0001) %MON dynstat_eta_del2             =   2.8574360143145E-04
(PID.TID 0000.0001) %MON dynstat_uvel_max             =   1.0127398451804E+00
(PID.TID 0000.0001) %MON dynstat_uvel_min             =  -8.2670217499633E-01
(PID.TID 0000.0001) %MON dynstat_uvel_mean            =   1.3956343310624E-03
(PID.TID 0000.0001) %MON dynstat_uvel_sd              =   2.1526375307473E-02
(PID.TID 0000.0001) %MON dynstat_uvel_del2            =   1.3119738763842E-05
(PID.TID 0000.0001) %MON dynstat_vvel_max             =   1.3262220084643E+00
(PID.TID 0000.0001) %MON dynstat_vvel_min             =  -1.0006286402276E+00
(PID.TID 0000.0001) %MON dynstat_vvel_mean            =   1.1655337353920E-03
(PID.TID 0000.0001) %MON dynstat_vvel_sd              =   2.4075301077564E-02
(PID.TID 0000.0001) %MON dynstat_vvel_del2            =   1.3468516827148E-05
(PID.TID 0000.0001) %MON dynstat_wvel_max             =   5.8770959108482E-04
(PID.TID 0000.0001) %MON dynstat_wvel_min             =  -1.3275406564736E-03
(PID.TID 0000.0001) %MON dynstat_wvel_mean            =   2.3501148979159E-09
(PID.TID 0000.0001) %MON dynstat_wvel_sd              =   2.5545918261784E-05
(PID.TID 0000.0001) %MON dynstat_wvel_del2            =   2.4903215766195E-08
(PID.TID 0000.0001) %MON dynstat_theta_max            =   3.2731681235495E+01
(PID.TID 0000.0001) %MON dynstat_theta_min            =  -2.0416704028800E+00
(PID.TID 0000.0001) %MON dynstat_theta_mean           =   3.5907405294482E+00
(PID.TID 0000.0001) %MON dynstat_theta_sd             =   4.4365081476482E+00
(PID.TID 0000.0001) %MON dynstat_theta_del2           =   1.0521489165920E-04
(PID.TID 0000.0001) %MON dynstat_salt_max             =   4.0711398535670E+01
(PID.TID 0000.0001) %MON dynstat_salt_min             =   1.7539457198220E+01
(PID.TID 0000.0001) %MON dynstat_salt_mean            =   3.4725699718174E+01
(PID.TID 0000.0001) %MON dynstat_salt_sd              =   3.7883986195227E-01
(PID.TID 0000.0001) %MON dynstat_salt_del2            =   2.5553107718120E-05
(PID.TID 0000.0001) %MON dynstat_sst_max              =   3.2731681235495E+01
(PID.TID 0000.0001) %MON dynstat_sst_min              =  -1.9610171845827E+00
(PID.TID 0000.0001) %MON dynstat_sst_mean             =   1.8532021763887E+01
(PID.TID 0000.0001) %MON dynstat_sst_sd               =   1.0059849397413E+01
(PID.TID 0000.0001) %MON dynstat_sst_del2             =   8.8876103631528E-04
(PID.TID 0000.0001) %MON dynstat_sss_max              =   3.9731732392870E+01
(PID.TID 0000.0001) %MON dynstat_sss_min              =   1.7539457198220E+01
(PID.TID 0000.0001) %MON dynstat_sss_mean             =   3.4723473470376E+01
(PID.TID 0000.0001) %MON dynstat_sss_sd               =   1.2178089414817E+00
(PID.TID 0000.0001) %MON dynstat_sss_del2             =   3.8984809468689E-04
(PID.TID 0000.0001) %MON forcing_qnet_max             =   9.1042660477529E+02
(PID.TID 0000.0001) %MON forcing_qnet_min             =  -8.0964351955217E+02
(PID.TID 0000.0001) %MON forcing_qnet_mean            =  -1.5647790044948E+01
(PID.TID 0000.0001) %MON forcing_qnet_sd              =   2.4877430449810E+02
(PID.TID 0000.0001) %MON forcing_qnet_del2            =   1.6394856888187E-01
(PID.TID 0000.0001) %MON forcing_qsw_max              =   3.9273341554359E+01
(PID.TID 0000.0001) %MON forcing_qsw_min              =  -8.9908971131721E+02
(PID.TID 0000.0001) %MON forcing_qsw_mean             =  -1.9165968185238E+02
(PID.TID 0000.0001) %MON forcing_qsw_sd               =   2.3102646485592E+02
(PID.TID 0000.0001) %MON forcing_qsw_del2             =   9.2518753978623E-02
(PID.TID 0000.0001) %MON forcing_empmr_max            =   1.6547743366558E-03
(PID.TID 0000.0001) %MON forcing_empmr_min            =  -2.3401298540462E-03
(PID.TID 0000.0001) %MON forcing_empmr_mean           =   6.5575818563030E-06
(PID.TID 0000.0001) %MON forcing_empmr_sd             =   1.0493136554343E-04
(PID.TID 0000.0001) %MON forcing_empmr_del2           =   4.4693838867990E-07
(PID.TID 0000.0001) %MON forcing_fu_max               =   9.0739985626831E-01
(PID.TID 0000.0001) %MON forcing_fu_min               =  -2.1187134231846E+00
(PID.TID 0000.0001) %MON forcing_fu_mean              =   9.2422966596772E-03
(PID.TID 0000.0001) %MON forcing_fu_sd                =   1.1972214446135E-01
(PID.TID 0000.0001) %MON forcing_fu_del2              =   1.0600032739911E-04
(PID.TID 0000.0001) %MON forcing_fv_max               =   1.0411466280911E+00
(PID.TID 0000.0001) %MON forcing_fv_min               =  -1.2414162740106E+00
(PID.TID 0000.0001) %MON forcing_fv_mean              =   4.8192642411064E-04
(PID.TID 0000.0001) %MON forcing_fv_sd                =   1.1767978012806E-01
(PID.TID 0000.0001) %MON forcing_fv_del2              =   1.0682244271418E-04
(PID.TID 0000.0001) %MON trAdv_CFL_u_max              =   6.8783534024482E-02
(PID.TID 0000.0001) %MON trAdv_CFL_v_max              =   6.7204003728871E-02
(PID.TID 0000.0001) %MON trAdv_CFL_w_max              =   2.1505875899333E-01
(PID.TID 0000.0001) %MON advcfl_uvel_max              =   6.9880469813048E-02
(PID.TID 0000.0001) %MON advcfl_vvel_max              =   5.9894161933500E-02
(PID.TID 0000.0001) %MON advcfl_wvel_max              =   2.1570727312692E-01
(PID.TID 0000.0001) %MON advcfl_W_hf_max              =   2.2577679965850E-01
(PID.TID 0000.0001) %MON pe_b_mean                    =   4.2393271385205E-04
(PID.TID 0000.0001) %MON ke_max                       =   8.9497052470784E-01
(PID.TID 0000.0001) %MON ke_mean                      =   5.0453037328163E-04
(PID.TID 0000.0001) %MON ke_vol                       =   1.3349969087669E+18
(PID.TID 0000.0001) %MON vort_r_min                   =  -2.5441987631315E-05
(PID.TID 0000.0001) %MON vort_r_max                   =   2.3082010033729E-05
(PID.TID 0000.0001) %MON vort_a_mean                  =  -1.9727864647440E-05
(PID.TID 0000.0001) %MON vort_a_sd                    =   7.4543255909150E-05
(PID.TID 0000.0001) %MON vort_p_mean                  =  -2.1760541025836E-05
(PID.TID 0000.0001) %MON vort_p_sd                    =   9.7244530081302E-05
(PID.TID 0000.0001) %MON surfExpan_theta_mean         =   7.0379414408819E-08
(PID.TID 0000.0001) %MON surfExpan_salt_mean          =   2.2950344977389E-08
(PID.TID 0000.0001) // =======================================================
(PID.TID 0000.0001) // End MONITOR dynamic field statistics
(PID.TID 0000.0001) // =======================================================
(PID.TID 0000.0001) // =======================================================
(PID.TID 0000.0001) // Begin MONITOR SEAICE statistics
(PID.TID 0000.0001) // =======================================================
(PID.TID 0000.0001) %MON seaice_tsnumber              =                    64
(PID.TID 0000.0001) %MON seaice_time_sec              =   2.3040000000000E+05
(PID.TID 0000.0001) %MON seaice_uice_max              =   4.0000000000000E-01
(PID.TID 0000.0001) %MON seaice_uice_min              =  -4.0000000000000E-01
(PID.TID 0000.0001) %MON seaice_uice_mean             =   6.3364675882896E-03
(PID.TID 0000.0001) %MON seaice_uice_sd               =   1.9534933911591E-01
(PID.TID 0000.0001) %MON seaice_uice_del2             =   1.8956628649115E-04
(PID.TID 0000.0001) %MON seaice_vice_max              =   4.0000000000000E-01
(PID.TID 0000.0001) %MON seaice_vice_min              =  -4.0000000000000E-01
(PID.TID 0000.0001) %MON seaice_vice_mean             =  -5.2567890294696E-03
(PID.TID 0000.0001) %MON seaice_vice_sd               =   2.0103694341131E-01
(PID.TID 0000.0001) %MON seaice_vice_del2             =   1.9977724460361E-04
(PID.TID 0000.0001) %MON seaice_area_max              =   9.5000000000000E-01
(PID.TID 0000.0001) %MON seaice_area_min              =   0.0000000000000E+00
(PID.TID 0000.0001) %MON seaice_area_mean             =   3.8210481830070E-02
(PID.TID 0000.0001) %MON seaice_area_sd               =   1.7711957585944E-01
(PID.TID 0000.0001) %MON seaice_area_del2             =   2.6102456234100E-04
(PID.TID 0000.0001) %MON seaice_heff_max              =   3.9558678232160E+00
(PID.TID 0000.0001) %MON seaice_heff_min              =   0.0000000000000E+00
(PID.TID 0000.0001) %MON seaice_heff_mean             =   5.3639579325398E-02
(PID.TID 0000.0001) %MON seaice_heff_sd               =   3.0881441499447E-01
(PID.TID 0000.0001) %MON seaice_heff_del2             =   2.9715141874448E-04
(PID.TID 0000.0001) %MON seaice_hsnow_max             =   9.6011505232903E-01
(PID.TID 0000.0001) %MON seaice_hsnow_min             =  -3.6115862785251E-05
(PID.TID 0000.0001) %MON seaice_hsnow_mean            =   5.2014852513911E-03
(PID.TID 0000.0001) %MON seaice_hsnow_sd              =   3.1405752704114E-02
(PID.TID 0000.0001) %MON seaice_hsnow_del2            =   5.3334911839557E-05
(PID.TID 0000.0001) // =======================================================
(PID.TID 0000.0001) // End MONITOR SEAICE statistics
(PID.TID 0000.0001) // =======================================================
(PID.TID 0000.0001) // =======================================================
(PID.TID 0000.0001) // Begin MONITOR EXF statistics
(PID.TID 0000.0001) // =======================================================
(PID.TID 0000.0001) %MON exf_tsnumber                 =                    64
(PID.TID 0000.0001) %MON exf_time_sec                 =   2.3040000000000E+05
(PID.TID 0000.0001) %MON exf_ustress_max              =   1.0081312060356E+00
(PID.TID 0000.0001) %MON exf_ustress_min              =  -1.6201586330153E+00
(PID.TID 0000.0001) %MON exf_ustress_mean             =   9.9202935381094E-03
(PID.TID 0000.0001) %MON exf_ustress_sd               =   1.1246898369632E-01
(PID.TID 0000.0001) %MON exf_ustress_del2             =   1.0284410786847E-04
(PID.TID 0000.0001) %MON exf_vstress_max              =   8.9683403571447E-01
(PID.TID 0000.0001) %MON exf_vstress_min              =  -8.6007958234898E-01
(PID.TID 0000.0001) %MON exf_vstress_mean             =   1.3953675732521E-05
(PID.TID 0000.0001) %MON exf_vstress_sd               =   1.1011527882797E-01
(PID.TID 0000.0001) %MON exf_vstress_del2             =   8.8075870578601E-05
(PID.TID 0000.0001) %MON exf_hflux_max                =   1.0871238484466E+03
(PID.TID 0000.0001) %MON exf_hflux_min                =  -6.6675121611297E+02
(PID.TID 0000.0001) %MON exf_hflux_mean               =   4.2642257420660E+00
(PID.TID 0000.0001) %MON exf_hflux_sd                 =   2.4881443694226E+02
(PID.TID 0000.0001) %MON exf_hflux_del2               =   4.4626341411080E-01
(PID.TID 0000.0001) %MON exf_sflux_max                =   2.6413987487149E-07
(PID.TID 0000.0001) %MON exf_sflux_min                =  -2.0529167827396E-06
(PID.TID 0000.0001) %MON exf_sflux_mean               =   6.6951844838177E-09
(PID.TID 0000.0001) %MON exf_sflux_sd                 =   8.5596281039086E-08
(PID.TID 0000.0001) %MON exf_sflux_del2               =   2.1908657527659E-10
(PID.TID 0000.0001) %MON exf_wspeed_max               =   2.6652793248494E+01
(PID.TID 0000.0001) %MON exf_wspeed_min               =   3.1446386873722E-01
(PID.TID 0000.0001) %MON exf_wspeed_mean              =   6.8942918651638E+00
(PID.TID 0000.0001) %MON exf_wspeed_sd                =   3.1714370746115E+00
(PID.TID 0000.0001) %MON exf_wspeed_del2              =   1.2146491379119E-02
(PID.TID 0000.0001) %MON exf_atemp_max                =   3.0682808469137E+02
(PID.TID 0000.0001) %MON exf_atemp_min                =   2.2771843757629E+02
(PID.TID 0000.0001) %MON exf_atemp_mean               =   2.8914791438366E+02
(PID.TID 0000.0001) %MON exf_atemp_sd                 =   1.2407052691876E+01
(PID.TID 0000.0001) %MON exf_atemp_del2               =   2.6512854584843E-02
(PID.TID 0000.0001) %MON exf_aqh_max                  =   2.2257479839027E-02
(PID.TID 0000.0001) %MON exf_aqh_min                  =   5.9923408722777E-05
(PID.TID 0000.0001) %MON exf_aqh_mean                 =   1.0915432258691E-02
(PID.TID 0000.0001) %MON exf_aqh_sd                   =   5.6725695463652E-03
(PID.TID 0000.0001) %MON exf_aqh_del2                 =   1.4601393658213E-05
(PID.TID 0000.0001) %MON exf_lwflux_max               =   2.1704971570509E+02
(PID.TID 0000.0001) %MON exf_lwflux_min               =  -2.1150627099769E+01
(PID.TID 0000.0001) %MON exf_lwflux_mean              =   4.9392965062786E+01
(PID.TID 0000.0001) %MON exf_lwflux_sd                =   2.9603926879998E+01
(PID.TID 0000.0001) %MON exf_lwflux_del2              =   1.0295469406175E-01
(PID.TID 0000.0001) %MON exf_evap_max                 =   2.6916789912307E-07
(PID.TID 0000.0001) %MON exf_evap_min                 =  -3.6260652477499E-08
(PID.TID 0000.0001) %MON exf_evap_mean                =   4.5520548106985E-08
(PID.TID 0000.0001) %MON exf_evap_sd                  =   2.9026242177021E-08
(PID.TID 0000.0001) %MON exf_evap_del2                =   7.5591057988463E-11
(PID.TID 0000.0001) %MON exf_precip_max               =   2.0745864901528E-06
(PID.TID 0000.0001) %MON exf_precip_min               =  -1.6000582784651E-08
(PID.TID 0000.0001) %MON exf_precip_mean              =   3.5807348877335E-08
(PID.TID 0000.0001) %MON exf_precip_sd                =   7.7780649571707E-08
(PID.TID 0000.0001) %MON exf_precip_del2              =   2.1702037165497E-10
(PID.TID 0000.0001) %MON exf_swflux_max               =   2.8402317807706E+01
(PID.TID 0000.0001) %MON exf_swflux_min               =  -8.1121378021338E+02
(PID.TID 0000.0001) %MON exf_swflux_mean              =  -1.8908729671210E+02
(PID.TID 0000.0001) %MON exf_swflux_sd                =   2.0283475793010E+02
(PID.TID 0000.0001) %MON exf_swflux_del2              =   3.7694268657653E-01
(PID.TID 0000.0001) %MON exf_swdown_max               =   8.7523312886556E+02
(PID.TID 0000.0001) %MON exf_swdown_min               =  -3.4562058766683E+01
(PID.TID 0000.0001) %MON exf_swdown_mean              =   2.0495581909659E+02
(PID.TID 0000.0001) %MON exf_swdown_sd                =   2.1923239459489E+02
(PID.TID 0000.0001) %MON exf_swdown_del2              =   4.0863410015588E-01
(PID.TID 0000.0001) %MON exf_lwdown_max               =   4.6408457438151E+02
(PID.TID 0000.0001) %MON exf_lwdown_min               =   8.2911237080892E+01
(PID.TID 0000.0001) %MON exf_lwdown_mean              =   3.6237593439857E+02
(PID.TID 0000.0001) %MON exf_lwdown_sd                =   6.6064846101185E+01
(PID.TID 0000.0001) %MON exf_lwdown_del2              =   4.8339899608207E-01
(PID.TID 0000.0001) %MON exf_runoff_max               =   2.1222428380673E-06
(PID.TID 0000.0001) %MON exf_runoff_min               =   0.0000000000000E+00
(PID.TID 0000.0001) %MON exf_runoff_mean              =   3.0180147458326E-09
(PID.TID 0000.0001) %MON exf_runoff_sd                =   2.4761124278190E-08
(PID.TID 0000.0001) %MON exf_runoff_del2              =   1.8414436574119E-11
(PID.TID 0000.0001) // =======================================================
(PID.TID 0000.0001) // End MONITOR EXF statistics
(PID.TID 0000.0001) // =======================================================
 SEAICE_LSR: Residual Initial ipass,Uice,Vice=    1  1.43571046E-01  1.76567797E-01
 SEAICE_LSR: Residual FrDrift U_fd,V_fd=  6.56932953E+01  8.19784341E+01
 SEAICE_LSR (ipass=   1) iters,dU,Resid=   204  1.99892486E-04  1.28264464E-03
 SEAICE_LSR (ipass=   1) iters,dV,Resid=   204  1.52076834E-04  2.63716271E-03
 SEAICE_LSR: Residual Initial ipass,Uice,Vice=    2  7.26745565E-01  1.62380453E-01
 SEAICE_LSR: Residual FrDrift U_fd,V_fd=  6.56764852E+01  8.19969838E+01
 SEAICE_LSR (ipass=   2) iters,dU,Resid=    90  5.47635489E-05  8.57487033E-04
 SEAICE_LSR (ipass=   2) iters,dV,Resid=    90  1.92888143E-04  2.47248974E-03
 cg2d: Sum(rhs),rhsMax =   5.43213231113248E+00  4.24534359236179E-01
 cg2d: Sum(rhs),rhsMax =   5.47478723249412E+00  4.29754670734009E-01
(PID.TID 0000.0001)      cg2d_init_res =   2.99633727193390E-01
(PID.TID 0000.0001)      cg2d_iters(min,last) =      -1      91
(PID.TID 0000.0001)      cg2d_last_res =   7.05828724861486E-06
(PID.TID 0000.0001) // =======================================================
(PID.TID 0000.0001) // Begin MONITOR dynamic field statistics
(PID.TID 0000.0001) // =======================================================
(PID.TID 0000.0001) %MON time_tsnumber                =                    66
(PID.TID 0000.0001) %MON time_secondsf                =   2.3760000000000E+05
(PID.TID 0000.0001) %MON dynstat_eta_max              =   1.6241252398022E+00
(PID.TID 0000.0001) %MON dynstat_eta_min              =  -4.0670468927878E+00
(PID.TID 0000.0001) %MON dynstat_eta_mean             =  -2.7709600875846E-03
(PID.TID 0000.0001) %MON dynstat_eta_sd               =   7.4100149337695E-01
(PID.TID 0000.0001) %MON dynstat_eta_del2             =   2.8616476493759E-04
(PID.TID 0000.0001) %MON dynstat_uvel_max             =   1.0111240155930E+00
(PID.TID 0000.0001) %MON dynstat_uvel_min             =  -8.2046074903136E-01
(PID.TID 0000.0001) %MON dynstat_uvel_mean            =   1.4035278182239E-03
(PID.TID 0000.0001) %MON dynstat_uvel_sd              =   2.1521736003866E-02
(PID.TID 0000.0001) %MON dynstat_uvel_del2            =   1.3074254261424E-05
(PID.TID 0000.0001) %MON dynstat_vvel_max             =   1.3368486900510E+00
(PID.TID 0000.0001) %MON dynstat_vvel_min             =  -1.0018584484239E+00
(PID.TID 0000.0001) %MON dynstat_vvel_mean            =   1.1586147553641E-03
(PID.TID 0000.0001) %MON dynstat_vvel_sd              =   2.4069014294946E-02
(PID.TID 0000.0001) %MON dynstat_vvel_del2            =   1.3429182342168E-05
(PID.TID 0000.0001) %MON dynstat_wvel_max             =   6.0827713180975E-04
(PID.TID 0000.0001) %MON dynstat_wvel_min             =  -1.3143367624698E-03
(PID.TID 0000.0001) %MON dynstat_wvel_mean            =   3.2832903796056E-09
(PID.TID 0000.0001) %MON dynstat_wvel_sd              =   2.5375305895157E-05
(PID.TID 0000.0001) %MON dynstat_wvel_del2            =   2.4636519601604E-08
(PID.TID 0000.0001) %MON dynstat_theta_max            =   3.2780674096568E+01
(PID.TID 0000.0001) %MON dynstat_theta_min            =  -2.0416592752782E+00
(PID.TID 0000.0001) %MON dynstat_theta_mean           =   3.5907447895072E+00
(PID.TID 0000.0001) %MON dynstat_theta_sd             =   4.4365141366126E+00
(PID.TID 0000.0001) %MON dynstat_theta_del2           =   1.0520630821021E-04
(PID.TID 0000.0001) %MON dynstat_salt_max             =   4.0711394613893E+01
(PID.TID 0000.0001) %MON dynstat_salt_min             =   1.7541687227678E+01
(PID.TID 0000.0001) %MON dynstat_salt_mean            =   3.4725700119320E+01
(PID.TID 0000.0001) %MON dynstat_salt_sd              =   3.7883762058653E-01
(PID.TID 0000.0001) %MON dynstat_salt_del2            =   2.5546798601468E-05
(PID.TID 0000.0001) %MON dynstat_sst_max              =   3.2780674096568E+01
(PID.TID 0000.0001) %MON dynstat_sst_min              =  -1.9609827295993E+00
(PID.TID 0000.0001) %MON dynstat_sst_mean             =   1.8532237688480E+01
(PID.TID 0000.0001) %MON dynstat_sst_sd               =   1.0059533234959E+01
(PID.TID 0000.0001) %MON dynstat_sst_del2             =   8.9041377656847E-04
(PID.TID 0000.0001) %MON dynstat_sss_max              =   3.9733410566762E+01
(PID.TID 0000.0001) %MON dynstat_sss_min              =   1.7541687227678E+01
(PID.TID 0000.0001) %MON dynstat_sss_mean             =   3.4723603775818E+01
(PID.TID 0000.0001) %MON dynstat_sss_sd               =   1.2177367453031E+00
(PID.TID 0000.0001) %MON dynstat_sss_del2             =   3.8981359119937E-04
(PID.TID 0000.0001) %MON forcing_qnet_max             =   8.8273141282074E+02
(PID.TID 0000.0001) %MON forcing_qnet_min             =  -7.8009775981953E+02
(PID.TID 0000.0001) %MON forcing_qnet_mean            =  -7.3145678193520E+00
(PID.TID 0000.0001) %MON forcing_qnet_sd              =   2.0931938350050E+02
(PID.TID 0000.0001) %MON forcing_qnet_del2            =   1.5114635382533E-01
(PID.TID 0000.0001) %MON forcing_qsw_max              =   2.5795733830056E+01
(PID.TID 0000.0001) %MON forcing_qsw_min              =  -7.5793114583090E+02
(PID.TID 0000.0001) %MON forcing_qsw_mean             =  -1.8389846032314E+02
(PID.TID 0000.0001) %MON forcing_qsw_sd               =   1.8404695130868E+02
(PID.TID 0000.0001) %MON forcing_qsw_del2             =   7.6495690225221E-02
(PID.TID 0000.0001) %MON forcing_empmr_max            =   1.7507608671200E-03
(PID.TID 0000.0001) %MON forcing_empmr_min            =  -2.0560486582588E-03
(PID.TID 0000.0001) %MON forcing_empmr_mean           =   6.1708507726904E-06
(PID.TID 0000.0001) %MON forcing_empmr_sd             =   1.0015447618544E-04
(PID.TID 0000.0001) %MON forcing_empmr_del2           =   4.3650592060196E-07
(PID.TID 0000.0001) %MON forcing_fu_max               =   8.9327403974123E-01
(PID.TID 0000.0001) %MON forcing_fu_min               =  -2.0221492419819E+00
(PID.TID 0000.0001) %MON forcing_fu_mean              =   9.2973298315702E-03
(PID.TID 0000.0001) %MON forcing_fu_sd                =   1.1456354866146E-01
(PID.TID 0000.0001) %MON forcing_fu_del2              =   9.7147651984109E-05
(PID.TID 0000.0001) %MON forcing_fv_max               =   1.0051781521338E+00
(PID.TID 0000.0001) %MON forcing_fv_min               =  -1.0696379344958E+00
(PID.TID 0000.0001) %MON forcing_fv_mean              =   2.7771340611408E-04
(PID.TID 0000.0001) %MON forcing_fv_sd                =   1.1455728703835E-01
(PID.TID 0000.0001) %MON forcing_fv_del2              =   9.7111692027062E-05
(PID.TID 0000.0001) %MON trAdv_CFL_u_max              =   6.8001729997346E-02
(PID.TID 0000.0001) %MON trAdv_CFL_v_max              =   6.8764778713601E-02
(PID.TID 0000.0001) %MON trAdv_CFL_w_max              =   2.1796358396006E-01
(PID.TID 0000.0001) %MON advcfl_uvel_max              =   6.8841062763707E-02
(PID.TID 0000.0001) %MON advcfl_vvel_max              =   6.1453652676714E-02
(PID.TID 0000.0001) %MON advcfl_wvel_max              =   2.1902815878149E-01
(PID.TID 0000.0001) %MON advcfl_W_hf_max              =   2.2868165949440E-01
(PID.TID 0000.0001) %MON pe_b_mean                    =   4.2352080649032E-04
(PID.TID 0000.0001) %MON ke_max                       =   9.0967849094141E-01
(PID.TID 0000.0001) %MON ke_mean                      =   5.0429103249064E-04
(PID.TID 0000.0001) %MON ke_vol                       =   1.3349968926263E+18
(PID.TID 0000.0001) %MON vort_r_min                   =  -2.4782320544154E-05
(PID.TID 0000.0001) %MON vort_r_max                   =   2.3157503603266E-05
(PID.TID 0000.0001) %MON vort_a_mean                  =  -1.9727864647440E-05
(PID.TID 0000.0001) %MON vort_a_sd                    =   7.4543251153163E-05
(PID.TID 0000.0001) %MON vort_p_mean                  =  -2.1760541314854E-05
(PID.TID 0000.0001) %MON vort_p_sd                    =   9.7244740703770E-05
(PID.TID 0000.0001) %MON surfExpan_theta_mean         =   7.5606568062276E-08
(PID.TID 0000.0001) %MON surfExpan_salt_mean          =   2.0345180420967E-08
(PID.TID 0000.0001) // =======================================================
(PID.TID 0000.0001) // End MONITOR dynamic field statistics
(PID.TID 0000.0001) // =======================================================
(PID.TID 0000.0001) // =======================================================
(PID.TID 0000.0001) // Begin MONITOR SEAICE statistics
(PID.TID 0000.0001) // =======================================================
(PID.TID 0000.0001) %MON seaice_tsnumber              =                    66
(PID.TID 0000.0001) %MON seaice_time_sec              =   2.3760000000000E+05
(PID.TID 0000.0001) %MON seaice_uice_max              =   4.0000000000000E-01
(PID.TID 0000.0001) %MON seaice_uice_min              =  -4.0000000000000E-01
(PID.TID 0000.0001) %MON seaice_uice_mean             =   7.4056303015538E-03
(PID.TID 0000.0001) %MON seaice_uice_sd               =   1.9503060139220E-01
(PID.TID 0000.0001) %MON seaice_uice_del2             =   1.8755813155405E-04
(PID.TID 0000.0001) %MON seaice_vice_max              =   4.0000000000000E-01
(PID.TID 0000.0001) %MON seaice_vice_min              =  -4.0000000000000E-01
(PID.TID 0000.0001) %MON seaice_vice_mean             =  -5.9828975850432E-03
(PID.TID 0000.0001) %MON seaice_vice_sd               =   2.0197460596427E-01
(PID.TID 0000.0001) %MON seaice_vice_del2             =   1.9765159652874E-04
(PID.TID 0000.0001) %MON seaice_area_max              =   9.5000000000000E-01
(PID.TID 0000.0001) %MON seaice_area_min              =   0.0000000000000E+00
(PID.TID 0000.0001) %MON seaice_area_mean             =   3.8174423296437E-02
(PID.TID 0000.0001) %MON seaice_area_sd               =   1.7705775989525E-01
(PID.TID 0000.0001) %MON seaice_area_del2             =   2.6131834624060E-04
(PID.TID 0000.0001) %MON seaice_heff_max              =   3.9307539733951E+00
(PID.TID 0000.0001) %MON seaice_heff_min              =   0.0000000000000E+00
(PID.TID 0000.0001) %MON seaice_heff_mean             =   5.3648496258625E-02
(PID.TID 0000.0001) %MON seaice_heff_sd               =   3.0895467744972E-01
(PID.TID 0000.0001) %MON seaice_heff_del2             =   2.9775923655115E-04
(PID.TID 0000.0001) %MON seaice_hsnow_max             =   9.5937973653565E-01
(PID.TID 0000.0001) %MON seaice_hsnow_min             =  -3.2109398978070E-05
(PID.TID 0000.0001) %MON seaice_hsnow_mean            =   5.1991246288641E-03
(PID.TID 0000.0001) %MON seaice_hsnow_sd              =   3.1398330468441E-02
(PID.TID 0000.0001) %MON seaice_hsnow_del2            =   5.3289332192898E-05
(PID.TID 0000.0001) // =======================================================
(PID.TID 0000.0001) // End MONITOR SEAICE statistics
(PID.TID 0000.0001) // =======================================================
(PID.TID 0000.0001) // =======================================================
(PID.TID 0000.0001) // Begin MONITOR EXF statistics
(PID.TID 0000.0001) // =======================================================
(PID.TID 0000.0001) %MON exf_tsnumber                 =                    66
(PID.TID 0000.0001) %MON exf_time_sec                 =   2.3760000000000E+05
(PID.TID 0000.0001) %MON exf_ustress_max              =   1.0193171360951E+00
(PID.TID 0000.0001) %MON exf_ustress_min              =  -1.5402309989620E+00
(PID.TID 0000.0001) %MON exf_ustress_mean             =   9.9497187619184E-03
(PID.TID 0000.0001) %MON exf_ustress_sd               =   1.0958573068004E-01
(PID.TID 0000.0001) %MON exf_ustress_del2             =   9.4580269401401E-05
(PID.TID 0000.0001) %MON exf_vstress_max              =   9.1724276542664E-01
(PID.TID 0000.0001) %MON exf_vstress_min              =  -8.6900347471237E-01
(PID.TID 0000.0001) %MON exf_vstress_mean             =  -1.6245319508938E-04
(PID.TID 0000.0001) %MON exf_vstress_sd               =   1.0935545448827E-01
(PID.TID 0000.0001) %MON exf_vstress_del2             =   7.9566534418080E-05
(PID.TID 0000.0001) %MON exf_hflux_max                =   1.0427360508464E+03
(PID.TID 0000.0001) %MON exf_hflux_min                =  -5.6942449166777E+02
(PID.TID 0000.0001) %MON exf_hflux_mean               =   1.2810654635083E+01
(PID.TID 0000.0001) %MON exf_hflux_sd                 =   2.3333381405586E+02
(PID.TID 0000.0001) %MON exf_hflux_del2               =   4.2754267809745E-01
(PID.TID 0000.0001) %MON exf_sflux_max                =   2.5282655958060E-07
(PID.TID 0000.0001) %MON exf_sflux_min                =  -2.0611009610813E-06
(PID.TID 0000.0001) %MON exf_sflux_mean               =   6.2227854960507E-09
(PID.TID 0000.0001) %MON exf_sflux_sd                 =   8.3911942167924E-08
(PID.TID 0000.0001) %MON exf_sflux_del2               =   2.0552004363167E-10
(PID.TID 0000.0001) %MON exf_wspeed_max               =   2.3308881282806E+01
(PID.TID 0000.0001) %MON exf_wspeed_min               =   3.2329647615552E-01
(PID.TID 0000.0001) %MON exf_wspeed_mean              =   6.9100143315831E+00
(PID.TID 0000.0001) %MON exf_wspeed_sd                =   3.1142172617886E+00
(PID.TID 0000.0001) %MON exf_wspeed_del2              =   1.2033483146485E-02
(PID.TID 0000.0001) %MON exf_atemp_max                =   3.0735958518982E+02
(PID.TID 0000.0001) %MON exf_atemp_min                =   2.2817675437927E+02
(PID.TID 0000.0001) %MON exf_atemp_mean               =   2.8915056605828E+02
(PID.TID 0000.0001) %MON exf_atemp_sd                 =   1.2411965097967E+01
(PID.TID 0000.0001) %MON exf_atemp_del2               =   2.6499171920878E-02
(PID.TID 0000.0001) %MON exf_aqh_max                  =   2.1930293180048E-02
(PID.TID 0000.0001) %MON exf_aqh_min                  =   6.3331541241496E-05
(PID.TID 0000.0001) %MON exf_aqh_mean                 =   1.0902321195700E-02
(PID.TID 0000.0001) %MON exf_aqh_sd                   =   5.6628579428205E-03
(PID.TID 0000.0001) %MON exf_aqh_del2                 =   1.4567944608534E-05
(PID.TID 0000.0001) %MON exf_lwflux_max               =   2.1628934763247E+02
(PID.TID 0000.0001) %MON exf_lwflux_min               =  -2.1100294499192E+01
(PID.TID 0000.0001) %MON exf_lwflux_mean              =   4.9193308885558E+01
(PID.TID 0000.0001) %MON exf_lwflux_sd                =   2.9276992794972E+01
(PID.TID 0000.0001) %MON exf_lwflux_del2              =   1.0177748309741E-01
(PID.TID 0000.0001) %MON exf_evap_max                 =   2.5833659102004E-07
(PID.TID 0000.0001) %MON exf_evap_min                 =  -2.2129800192809E-08
(PID.TID 0000.0001) %MON exf_evap_mean                =   4.5792041214509E-08
(PID.TID 0000.0001) %MON exf_evap_sd                  =   2.8773695945275E-08
(PID.TID 0000.0001) %MON exf_evap_del2                =   7.5053892532849E-11
(PID.TID 0000.0001) %MON exf_precip_max               =   2.0238231854819E-06
(PID.TID 0000.0001) %MON exf_precip_min               =  -1.6041472150619E-08
(PID.TID 0000.0001) %MON exf_precip_mean              =   3.6552145398252E-08
(PID.TID 0000.0001) %MON exf_precip_sd                =   7.5962137757552E-08
(PID.TID 0000.0001) %MON exf_precip_del2              =   2.0283958436104E-10
(PID.TID 0000.0001) %MON exf_swflux_max               =   2.5800660164893E+01
(PID.TID 0000.0001) %MON exf_swflux_min               =  -7.2856911563361E+02
(PID.TID 0000.0001) %MON exf_swflux_mean              =  -1.8113272072019E+02
(PID.TID 0000.0001) %MON exf_swflux_sd                =   1.7898065874655E+02
(PID.TID 0000.0001) %MON exf_swflux_del2              =   3.4344585297565E-01
(PID.TID 0000.0001) %MON exf_swdown_max               =   7.8613641357422E+02
(PID.TID 0000.0001) %MON exf_swdown_min               =  -3.4575000762939E+01
(PID.TID 0000.0001) %MON exf_swdown_mean              =   1.9623534634932E+02
(PID.TID 0000.0001) %MON exf_swdown_sd                =   1.9330452816109E+02
(PID.TID 0000.0001) %MON exf_swdown_del2              =   3.7209727801206E-01
(PID.TID 0000.0001) %MON exf_lwdown_max               =   4.7575663757324E+02
(PID.TID 0000.0001) %MON exf_lwdown_min               =   8.3695137023926E+01
(PID.TID 0000.0001) %MON exf_lwdown_mean              =   3.6258284354340E+02
(PID.TID 0000.0001) %MON exf_lwdown_sd                =   6.5806905120314E+01
(PID.TID 0000.0001) %MON exf_lwdown_del2              =   4.8357710874554E-01
(PID.TID 0000.0001) %MON exf_runoff_max               =   2.1253969968653E-06
(PID.TID 0000.0001) %MON exf_runoff_min               =   0.0000000000000E+00
(PID.TID 0000.0001) %MON exf_runoff_mean              =   3.0171103202064E-09
(PID.TID 0000.0001) %MON exf_runoff_sd                =   2.4790862362599E-08
(PID.TID 0000.0001) %MON exf_runoff_del2              =   1.8425506091493E-11
(PID.TID 0000.0001) // =======================================================
(PID.TID 0000.0001) // End MONITOR EXF statistics
(PID.TID 0000.0001) // =======================================================
 SEAICE_LSR: Residual Initial ipass,Uice,Vice=    1  1.35602171E-01  1.76679671E-01
 SEAICE_LSR: Residual FrDrift U_fd,V_fd=  6.81264219E+01  8.38739947E+01
 SEAICE_LSR (ipass=   1) iters,dU,Resid=   272  1.98792459E-04  1.54690734E-03
 SEAICE_LSR (ipass=   1) iters,dV,Resid=   272  1.19056963E-04  1.97766404E-03
 SEAICE_LSR: Residual Initial ipass,Uice,Vice=    2  3.86625383E-01  1.34562117E-01
 SEAICE_LSR: Residual FrDrift U_fd,V_fd=  6.85406239E+01  8.39775039E+01
 SEAICE_LSR (ipass=   2) iters,dU,Resid=    94  5.03382407E-05  7.14434872E-04
 SEAICE_LSR (ipass=   2) iters,dV,Resid=    94  1.98546289E-04  1.53676264E-03
 cg2d: Sum(rhs),rhsMax =   5.51666092912434E+00  4.34853539670174E-01
 cg2d: Sum(rhs),rhsMax =   5.55780994443360E+00  4.38645749869710E-01
(PID.TID 0000.0001)      cg2d_init_res =   2.75400702092468E-01
(PID.TID 0000.0001)      cg2d_iters(min,last) =      -1      90
(PID.TID 0000.0001)      cg2d_last_res =   6.69074785706251E-06
(PID.TID 0000.0001) // =======================================================
(PID.TID 0000.0001) // Begin MONITOR dynamic field statistics
(PID.TID 0000.0001) // =======================================================
(PID.TID 0000.0001) %MON time_tsnumber                =                    68
(PID.TID 0000.0001) %MON time_secondsf                =   2.4480000000000E+05
(PID.TID 0000.0001) %MON dynstat_eta_max              =   1.5058594316464E+00
(PID.TID 0000.0001) %MON dynstat_eta_min              =  -4.0745497720322E+00
(PID.TID 0000.0001) %MON dynstat_eta_mean             =  -2.8129804641541E-03
(PID.TID 0000.0001) %MON dynstat_eta_sd               =   7.4078958486722E-01
(PID.TID 0000.0001) %MON dynstat_eta_del2             =   2.8646777517732E-04
(PID.TID 0000.0001) %MON dynstat_uvel_max             =   9.9569240958820E-01
(PID.TID 0000.0001) %MON dynstat_uvel_min             =  -8.2246953158986E-01
(PID.TID 0000.0001) %MON dynstat_uvel_mean            =   1.4101134855519E-03
(PID.TID 0000.0001) %MON dynstat_uvel_sd              =   2.1495757428438E-02
(PID.TID 0000.0001) %MON dynstat_uvel_del2            =   1.3023146366111E-05
(PID.TID 0000.0001) %MON dynstat_vvel_max             =   1.3499289164941E+00
(PID.TID 0000.0001) %MON dynstat_vvel_min             =  -1.0005271849745E+00
(PID.TID 0000.0001) %MON dynstat_vvel_mean            =   1.1551363611163E-03
(PID.TID 0000.0001) %MON dynstat_vvel_sd              =   2.4083515459560E-02
(PID.TID 0000.0001) %MON dynstat_vvel_del2            =   1.3379168873758E-05
(PID.TID 0000.0001) %MON dynstat_wvel_max             =   6.0407795265614E-04
(PID.TID 0000.0001) %MON dynstat_wvel_min             =  -1.3011221045899E-03
(PID.TID 0000.0001) %MON dynstat_wvel_mean            =   3.7039748244597E-09
(PID.TID 0000.0001) %MON dynstat_wvel_sd              =   2.5283147345325E-05
(PID.TID 0000.0001) %MON dynstat_wvel_del2            =   2.4410080544081E-08
(PID.TID 0000.0001) %MON dynstat_theta_max            =   3.2803526917289E+01
(PID.TID 0000.0001) %MON dynstat_theta_min            =  -2.0416494313522E+00
(PID.TID 0000.0001) %MON dynstat_theta_mean           =   3.5907451498704E+00
(PID.TID 0000.0001) %MON dynstat_theta_sd             =   4.4364957038607E+00
(PID.TID 0000.0001) %MON dynstat_theta_del2           =   1.0519259771534E-04
(PID.TID 0000.0001) %MON dynstat_salt_max             =   4.0711391192076E+01
(PID.TID 0000.0001) %MON dynstat_salt_min             =   1.7543656349260E+01
(PID.TID 0000.0001) %MON dynstat_salt_mean            =   3.4725700504782E+01
(PID.TID 0000.0001) %MON dynstat_salt_sd              =   3.7883537710935E-01
(PID.TID 0000.0001) %MON dynstat_salt_del2            =   2.5538395144056E-05
(PID.TID 0000.0001) %MON dynstat_sst_max              =   3.2803526917289E+01
(PID.TID 0000.0001) %MON dynstat_sst_min              =  -1.9609774534249E+00
(PID.TID 0000.0001) %MON dynstat_sst_mean             =   1.8532077180615E+01
(PID.TID 0000.0001) %MON dynstat_sst_sd               =   1.0058324813946E+01
(PID.TID 0000.0001) %MON dynstat_sst_del2             =   8.9222556827657E-04
(PID.TID 0000.0001) %MON dynstat_sss_max              =   3.9735053083314E+01
(PID.TID 0000.0001) %MON dynstat_sss_min              =   1.7543656349260E+01
(PID.TID 0000.0001) %MON dynstat_sss_mean             =   3.4723719790729E+01
(PID.TID 0000.0001) %MON dynstat_sss_sd               =   1.2176308007593E+00
(PID.TID 0000.0001) %MON dynstat_sss_del2             =   3.8980445530437E-04
(PID.TID 0000.0001) %MON forcing_qnet_max             =   9.0019311087930E+02
(PID.TID 0000.0001) %MON forcing_qnet_min             =  -7.4527181284783E+02
(PID.TID 0000.0001) %MON forcing_qnet_mean            =   1.0564759386758E+00
(PID.TID 0000.0001) %MON forcing_qnet_sd              =   2.1876047138926E+02
(PID.TID 0000.0001) %MON forcing_qnet_del2            =   1.4899951498293E-01
(PID.TID 0000.0001) %MON forcing_qsw_max              =   2.5805586536243E+01
(PID.TID 0000.0001) %MON forcing_qsw_min              =  -7.2950374406566E+02
(PID.TID 0000.0001) %MON forcing_qsw_mean             =  -1.7613482806479E+02
(PID.TID 0000.0001) %MON forcing_qsw_sd               =   1.8832815806861E+02
(PID.TID 0000.0001) %MON forcing_qsw_del2             =   7.2150183240285E-02
(PID.TID 0000.0001) %MON forcing_empmr_max            =   1.8831719593165E-03
(PID.TID 0000.0001) %MON forcing_empmr_min            =  -2.2486119918783E-03
(PID.TID 0000.0001) %MON forcing_empmr_mean           =   5.9529926398159E-06
(PID.TID 0000.0001) %MON forcing_empmr_sd             =   1.0157806663947E-04
(PID.TID 0000.0001) %MON forcing_empmr_del2           =   4.3842293645534E-07
(PID.TID 0000.0001) %MON forcing_fu_max               =   9.1723071001915E-01
(PID.TID 0000.0001) %MON forcing_fu_min               =  -1.9358412715447E+00
(PID.TID 0000.0001) %MON forcing_fu_mean              =   9.3834057162119E-03
(PID.TID 0000.0001) %MON forcing_fu_sd                =   1.1415853370794E-01
(PID.TID 0000.0001) %MON forcing_fu_del2              =   9.6460658064743E-05
(PID.TID 0000.0001) %MON forcing_fv_max               =   1.0047302146753E+00
(PID.TID 0000.0001) %MON forcing_fv_min               =  -8.9301316916323E-01
(PID.TID 0000.0001) %MON forcing_fv_mean              =   7.2846037990929E-05
(PID.TID 0000.0001) %MON forcing_fv_sd                =   1.1596929138949E-01
(PID.TID 0000.0001) %MON forcing_fv_del2              =   9.6162122228137E-05
(PID.TID 0000.0001) %MON trAdv_CFL_u_max              =   6.6814330603088E-02
(PID.TID 0000.0001) %MON trAdv_CFL_v_max              =   6.8789336382951E-02
(PID.TID 0000.0001) %MON trAdv_CFL_w_max              =   2.2333558055933E-01
(PID.TID 0000.0001) %MON advcfl_uvel_max              =   6.7334807846461E-02
(PID.TID 0000.0001) %MON advcfl_vvel_max              =   6.1477977872109E-02
(PID.TID 0000.0001) %MON advcfl_wvel_max              =   2.2453593266242E-01
(PID.TID 0000.0001) %MON advcfl_W_hf_max              =   2.3405374664310E-01
(PID.TID 0000.0001) %MON pe_b_mean                    =   4.2305294797581E-04
(PID.TID 0000.0001) %MON ke_max                       =   9.2742297752942E-01
(PID.TID 0000.0001) %MON ke_mean                      =   5.0409406703020E-04
(PID.TID 0000.0001) %MON ke_vol                       =   1.3349968773096E+18
(PID.TID 0000.0001) %MON vort_r_min                   =  -2.3937712291484E-05
(PID.TID 0000.0001) %MON vort_r_max                   =   2.3471215430978E-05
(PID.TID 0000.0001) %MON vort_a_mean                  =  -1.9727864647440E-05
(PID.TID 0000.0001) %MON vort_a_sd                    =   7.4543246536572E-05
(PID.TID 0000.0001) %MON vort_p_mean                  =  -2.1760541603180E-05
(PID.TID 0000.0001) %MON vort_p_sd                    =   9.7244912001776E-05
(PID.TID 0000.0001) %MON surfExpan_theta_mean         =   6.0188926434854E-08
(PID.TID 0000.0001) %MON surfExpan_salt_mean          =   1.6042021618281E-08
(PID.TID 0000.0001) // =======================================================
(PID.TID 0000.0001) // End MONITOR dynamic field statistics
(PID.TID 0000.0001) // =======================================================
(PID.TID 0000.0001) // =======================================================
(PID.TID 0000.0001) // Begin MONITOR SEAICE statistics
(PID.TID 0000.0001) // =======================================================
(PID.TID 0000.0001) %MON seaice_tsnumber              =                    68
(PID.TID 0000.0001) %MON seaice_time_sec              =   2.4480000000000E+05
(PID.TID 0000.0001) %MON seaice_uice_max              =   4.0000000000000E-01
(PID.TID 0000.0001) %MON seaice_uice_min              =  -4.0000000000000E-01
(PID.TID 0000.0001) %MON seaice_uice_mean             =   8.3142689107667E-03
(PID.TID 0000.0001) %MON seaice_uice_sd               =   1.9492289093039E-01
(PID.TID 0000.0001) %MON seaice_uice_del2             =   1.8639245885421E-04
(PID.TID 0000.0001) %MON seaice_vice_max              =   4.0000000000000E-01
(PID.TID 0000.0001) %MON seaice_vice_min              =  -4.0000000000000E-01
(PID.TID 0000.0001) %MON seaice_vice_mean             =  -6.2535965654383E-03
(PID.TID 0000.0001) %MON seaice_vice_sd               =   2.0273411591565E-01
(PID.TID 0000.0001) %MON seaice_vice_del2             =   1.9468720676872E-04
(PID.TID 0000.0001) %MON seaice_area_max              =   9.5000000000000E-01
(PID.TID 0000.0001) %MON seaice_area_min              =   0.0000000000000E+00
(PID.TID 0000.0001) %MON seaice_area_mean             =   3.8153265082155E-02
(PID.TID 0000.0001) %MON seaice_area_sd               =   1.7701136040579E-01
(PID.TID 0000.0001) %MON seaice_area_del2             =   2.6078829437442E-04
(PID.TID 0000.0001) %MON seaice_heff_max              =   3.9127084838491E+00
(PID.TID 0000.0001) %MON seaice_heff_min              =   0.0000000000000E+00
(PID.TID 0000.0001) %MON seaice_heff_mean             =   5.3658758708841E-02
(PID.TID 0000.0001) %MON seaice_heff_sd               =   3.0909304720446E-01
(PID.TID 0000.0001) %MON seaice_heff_del2             =   2.9830866043548E-04
(PID.TID 0000.0001) %MON seaice_hsnow_max             =   9.5867837921295E-01
(PID.TID 0000.0001) %MON seaice_hsnow_min             =  -2.8102935170890E-05
(PID.TID 0000.0001) %MON seaice_hsnow_mean            =   5.1981259740112E-03
(PID.TID 0000.0001) %MON seaice_hsnow_sd              =   3.1394126134064E-02
(PID.TID 0000.0001) %MON seaice_hsnow_del2            =   5.3192425945587E-05
(PID.TID 0000.0001) // =======================================================
(PID.TID 0000.0001) // End MONITOR SEAICE statistics
(PID.TID 0000.0001) // =======================================================
(PID.TID 0000.0001) // =======================================================
(PID.TID 0000.0001) // Begin MONITOR EXF statistics
(PID.TID 0000.0001) // =======================================================
(PID.TID 0000.0001) %MON exf_tsnumber                 =                    68
(PID.TID 0000.0001) %MON exf_time_sec                 =   2.4480000000000E+05
(PID.TID 0000.0001) %MON exf_ustress_max              =   1.1123704864947E+00
(PID.TID 0000.0001) %MON exf_ustress_min              =  -1.4603033649088E+00
(PID.TID 0000.0001) %MON exf_ustress_mean             =   9.9791439857273E-03
(PID.TID 0000.0001) %MON exf_ustress_sd               =   1.1170433550836E-01
(PID.TID 0000.0001) %MON exf_ustress_del2             =   9.6551182368419E-05
(PID.TID 0000.0001) %MON exf_vstress_max              =   1.1231457094351E+00
(PID.TID 0000.0001) %MON exf_vstress_min              =  -9.4201399882634E-01
(PID.TID 0000.0001) %MON exf_vstress_mean             =  -3.3886006591130E-04
(PID.TID 0000.0001) %MON exf_vstress_sd               =   1.1331871237730E-01
(PID.TID 0000.0001) %MON exf_vstress_del2             =   8.4081376363073E-05
(PID.TID 0000.0001) %MON exf_hflux_max                =   1.1102067036115E+03
(PID.TID 0000.0001) %MON exf_hflux_min                =  -6.6080302123108E+02
(PID.TID 0000.0001) %MON exf_hflux_mean               =   2.1470633144742E+01
(PID.TID 0000.0001) %MON exf_hflux_sd                 =   2.6290546827250E+02
(PID.TID 0000.0001) %MON exf_hflux_del2               =   4.5827356703123E-01
(PID.TID 0000.0001) %MON exf_sflux_max                =   2.5755969502841E-07
(PID.TID 0000.0001) %MON exf_sflux_min                =  -2.4895934795073E-06
(PID.TID 0000.0001) %MON exf_sflux_mean               =   5.7464936520116E-09
(PID.TID 0000.0001) %MON exf_sflux_sd                 =   8.9647941633863E-08
(PID.TID 0000.0001) %MON exf_sflux_del2               =   2.3313778600653E-10
(PID.TID 0000.0001) %MON exf_wspeed_max               =   3.0248759905497E+01
(PID.TID 0000.0001) %MON exf_wspeed_min               =   1.8264146770040E-01
(PID.TID 0000.0001) %MON exf_wspeed_mean              =   6.9257367980024E+00
(PID.TID 0000.0001) %MON exf_wspeed_sd                =   3.1704052199727E+00
(PID.TID 0000.0001) %MON exf_wspeed_del2              =   1.2164288294113E-02
(PID.TID 0000.0001) %MON exf_atemp_max                =   3.0789108568827E+02
(PID.TID 0000.0001) %MON exf_atemp_min                =   2.2863507118225E+02
(PID.TID 0000.0001) %MON exf_atemp_mean               =   2.8915321773290E+02
(PID.TID 0000.0001) %MON exf_atemp_sd                 =   1.2425319307748E+01
(PID.TID 0000.0001) %MON exf_atemp_del2               =   2.6505946385888E-02
(PID.TID 0000.0001) %MON exf_aqh_max                  =   2.1947783728441E-02
(PID.TID 0000.0001) %MON exf_aqh_min                  =   6.6739673760215E-05
(PID.TID 0000.0001) %MON exf_aqh_mean                 =   1.0889210132709E-02
(PID.TID 0000.0001) %MON exf_aqh_sd                   =   5.6626560202676E-03
(PID.TID 0000.0001) %MON exf_aqh_del2                 =   1.4562164589807E-05
(PID.TID 0000.0001) %MON exf_lwflux_max               =   2.1552897916329E+02
(PID.TID 0000.0001) %MON exf_lwflux_min               =  -3.5830043454751E+01
(PID.TID 0000.0001) %MON exf_lwflux_mean              =   4.8991087879408E+01
(PID.TID 0000.0001) %MON exf_lwflux_sd                =   2.9558388062727E+01
(PID.TID 0000.0001) %MON exf_lwflux_del2              =   1.0181434276489E-01
(PID.TID 0000.0001) %MON exf_evap_max                 =   2.6516836376225E-07
(PID.TID 0000.0001) %MON exf_evap_min                 =  -2.4899849807783E-08
(PID.TID 0000.0001) %MON exf_evap_mean                =   4.6059641465761E-08
(PID.TID 0000.0001) %MON exf_evap_sd                  =   2.9273724932464E-08
(PID.TID 0000.0001) %MON exf_evap_del2                =   7.6492866282144E-11
(PID.TID 0000.0001) %MON exf_precip_max               =   2.5044919690724E-06
(PID.TID 0000.0001) %MON exf_precip_min               =  -1.6082361516586E-08
(PID.TID 0000.0001) %MON exf_precip_mean              =   3.7296941919169E-08
(PID.TID 0000.0001) %MON exf_precip_sd                =   8.1954003363893E-08
(PID.TID 0000.0001) %MON exf_precip_del2              =   2.2918757441664E-10
(PID.TID 0000.0001) %MON exf_swflux_max               =   2.5810512944106E+01
(PID.TID 0000.0001) %MON exf_swflux_min               =  -8.0860122998663E+02
(PID.TID 0000.0001) %MON exf_swflux_mean              =  -1.7317799649047E+02
(PID.TID 0000.0001) %MON exf_swflux_sd                =   2.1011088082837E+02
(PID.TID 0000.0001) %MON exf_swflux_del2              =   3.6499308102579E-01
(PID.TID 0000.0001) %MON exf_swdown_max               =   8.7194499206543E+02
(PID.TID 0000.0001) %MON exf_swdown_min               =  -3.4587942759196E+01
(PID.TID 0000.0001) %MON exf_swdown_mean              =   1.8751487360204E+02
(PID.TID 0000.0001) %MON exf_swdown_sd                =   2.2701611173208E+02
(PID.TID 0000.0001) %MON exf_swdown_del2              =   3.9527892945353E-01
(PID.TID 0000.0001) %MON exf_lwdown_max               =   5.1076092020671E+02
(PID.TID 0000.0001) %MON exf_lwdown_min               =   8.4479036966960E+01
(PID.TID 0000.0001) %MON exf_lwdown_mean              =   3.6278975268822E+02
(PID.TID 0000.0001) %MON exf_lwdown_sd                =   6.5837832139280E+01
(PID.TID 0000.0001) %MON exf_lwdown_del2              =   4.8402894611281E-01
(PID.TID 0000.0001) %MON exf_runoff_max               =   2.1285511556632E-06
(PID.TID 0000.0001) %MON exf_runoff_min               =   0.0000000000000E+00
(PID.TID 0000.0001) %MON exf_runoff_mean              =   3.0162058945801E-09
(PID.TID 0000.0001) %MON exf_runoff_sd                =   2.4820616978325E-08
(PID.TID 0000.0001) %MON exf_runoff_del2              =   1.8436599535977E-11
(PID.TID 0000.0001) // =======================================================
(PID.TID 0000.0001) // End MONITOR EXF statistics
(PID.TID 0000.0001) // =======================================================
 SEAICE_LSR: Residual Initial ipass,Uice,Vice=    1  1.39597223E-01  1.84738986E-01
 SEAICE_LSR: Residual FrDrift U_fd,V_fd=  7.09882138E+01  8.60847977E+01
 SEAICE_LSR (ipass=   1) iters,dU,Resid=   258  1.59017198E-04  1.14320436E-03
 SEAICE_LSR (ipass=   1) iters,dV,Resid=   258  1.99776592E-04  3.17913448E-03
 SEAICE_LSR: Residual Initial ipass,Uice,Vice=    2  3.13815771E-01  3.02405175E-01
 SEAICE_LSR: Residual FrDrift U_fd,V_fd=  7.10741014E+01  8.60668145E+01
 SEAICE_LSR (ipass=   2) iters,dU,Resid=   110  3.28928066E-05  4.47085531E-04
 SEAICE_LSR (ipass=   2) iters,dV,Resid=   110  1.94267978E-04  1.43774661E-03
 cg2d: Sum(rhs),rhsMax =   5.59796534361687E+00  4.35820797546278E-01
 cg2d: Sum(rhs),rhsMax =   5.63725462080479E+00  4.32710227391798E-01
(PID.TID 0000.0001)      cg2d_init_res =   2.62473189365960E-01
(PID.TID 0000.0001)      cg2d_iters(min,last) =      -1      90
(PID.TID 0000.0001)      cg2d_last_res =   6.47283256002061E-06
(PID.TID 0000.0001) // =======================================================
(PID.TID 0000.0001) // Begin MONITOR dynamic field statistics
(PID.TID 0000.0001) // =======================================================
(PID.TID 0000.0001) %MON time_tsnumber                =                    70
(PID.TID 0000.0001) %MON time_secondsf                =   2.5200000000000E+05
(PID.TID 0000.0001) %MON dynstat_eta_max              =   1.3643741922336E+00
(PID.TID 0000.0001) %MON dynstat_eta_min              =  -4.0803679128666E+00
(PID.TID 0000.0001) %MON dynstat_eta_mean             =  -2.8531898856435E-03
(PID.TID 0000.0001) %MON dynstat_eta_sd               =   7.4052807521215E-01
(PID.TID 0000.0001) %MON dynstat_eta_del2             =   2.8645779663260E-04
(PID.TID 0000.0001) %MON dynstat_uvel_max             =   9.8069279517171E-01
(PID.TID 0000.0001) %MON dynstat_uvel_min             =  -8.2354153430065E-01
(PID.TID 0000.0001) %MON dynstat_uvel_mean            =   1.4138776472648E-03
(PID.TID 0000.0001) %MON dynstat_uvel_sd              =   2.1477223373693E-02
(PID.TID 0000.0001) %MON dynstat_uvel_del2            =   1.2984107069701E-05
(PID.TID 0000.0001) %MON dynstat_vvel_max             =   1.3654589243467E+00
(PID.TID 0000.0001) %MON dynstat_vvel_min             =  -9.9746510799556E-01
(PID.TID 0000.0001) %MON dynstat_vvel_mean            =   1.1537475824939E-03
(PID.TID 0000.0001) %MON dynstat_vvel_sd              =   2.4111059344759E-02
(PID.TID 0000.0001) %MON dynstat_vvel_del2            =   1.3330596954321E-05
(PID.TID 0000.0001) %MON dynstat_wvel_max             =   5.7272961536153E-04
(PID.TID 0000.0001) %MON dynstat_wvel_min             =  -1.2825037786866E-03
(PID.TID 0000.0001) %MON dynstat_wvel_mean            =   3.4715048640037E-09
(PID.TID 0000.0001) %MON dynstat_wvel_sd              =   2.5234047908503E-05
(PID.TID 0000.0001) %MON dynstat_wvel_del2            =   2.4219106988517E-08
(PID.TID 0000.0001) %MON dynstat_theta_max            =   3.2800725457009E+01
(PID.TID 0000.0001) %MON dynstat_theta_min            =  -2.0416408427527E+00
(PID.TID 0000.0001) %MON dynstat_theta_mean           =   3.5907415691040E+00
(PID.TID 0000.0001) %MON dynstat_theta_sd             =   4.4364527224411E+00
(PID.TID 0000.0001) %MON dynstat_theta_del2           =   1.0517683609113E-04
(PID.TID 0000.0001) %MON dynstat_salt_max             =   4.0711388469117E+01
(PID.TID 0000.0001) %MON dynstat_salt_min             =   1.7545267317984E+01
(PID.TID 0000.0001) %MON dynstat_salt_mean            =   3.4725700870682E+01
(PID.TID 0000.0001) %MON dynstat_salt_sd              =   3.7883315110352E-01
(PID.TID 0000.0001) %MON dynstat_salt_del2            =   2.5526392472112E-05
(PID.TID 0000.0001) %MON dynstat_sst_max              =   3.2800725457009E+01
(PID.TID 0000.0001) %MON dynstat_sst_min              =  -1.9609938256686E+00
(PID.TID 0000.0001) %MON dynstat_sst_mean             =   1.8532201561830E+01
(PID.TID 0000.0001) %MON dynstat_sst_sd               =   1.0056642877050E+01
(PID.TID 0000.0001) %MON dynstat_sst_del2             =   8.9415912876214E-04
(PID.TID 0000.0001) %MON dynstat_sss_max              =   3.9736025801185E+01
(PID.TID 0000.0001) %MON dynstat_sss_min              =   1.7545267317984E+01
(PID.TID 0000.0001) %MON dynstat_sss_mean             =   3.4723859955475E+01
(PID.TID 0000.0001) %MON dynstat_sss_sd               =   1.2175112515233E+00
(PID.TID 0000.0001) %MON dynstat_sss_del2             =   3.8977528847731E-04
(PID.TID 0000.0001) %MON forcing_qnet_max             =   1.0238083330096E+03
(PID.TID 0000.0001) %MON forcing_qnet_min             =  -7.7338431195614E+02
(PID.TID 0000.0001) %MON forcing_qnet_mean            =   9.5112505222469E+00
(PID.TID 0000.0001) %MON forcing_qnet_sd              =   2.7153241541930E+02
(PID.TID 0000.0001) %MON forcing_qnet_del2            =   1.5815389330124E-01
(PID.TID 0000.0001) %MON forcing_qsw_max              =   2.5815439388482E+01
(PID.TID 0000.0001) %MON forcing_qsw_min              =  -9.0136558582887E+02
(PID.TID 0000.0001) %MON forcing_qsw_mean             =  -1.6837123807103E+02
(PID.TID 0000.0001) %MON forcing_qsw_sd               =   2.4115813850371E+02
(PID.TID 0000.0001) %MON forcing_qsw_del2             =   8.1486976815926E-02
(PID.TID 0000.0001) %MON forcing_empmr_max            =   2.0084245076844E-03
(PID.TID 0000.0001) %MON forcing_empmr_min            =  -2.7306582015615E-03
(PID.TID 0000.0001) %MON forcing_empmr_mean           =   5.6839459259394E-06
(PID.TID 0000.0001) %MON forcing_empmr_sd             =   1.0946211857814E-04
(PID.TID 0000.0001) %MON forcing_empmr_del2           =   4.5346840597608E-07
(PID.TID 0000.0001) %MON forcing_fu_max               =   1.0482953786850E+00
(PID.TID 0000.0001) %MON forcing_fu_min               =  -1.8506549343901E+00
(PID.TID 0000.0001) %MON forcing_fu_mean              =   9.4760183079904E-03
(PID.TID 0000.0001) %MON forcing_fu_sd                =   1.1855197600924E-01
(PID.TID 0000.0001) %MON forcing_fu_del2              =   1.0381882018139E-04
(PID.TID 0000.0001) %MON forcing_fv_max               =   1.2319102287293E+00
(PID.TID 0000.0001) %MON forcing_fv_min               =  -1.0551613569260E+00
(PID.TID 0000.0001) %MON forcing_fv_mean              =  -1.3547589492535E-04
(PID.TID 0000.0001) %MON forcing_fv_sd                =   1.2172492600638E-01
(PID.TID 0000.0001) %MON forcing_fv_del2              =   1.0340086464942E-04
(PID.TID 0000.0001) %MON trAdv_CFL_u_max              =   6.4879353441322E-02
(PID.TID 0000.0001) %MON trAdv_CFL_v_max              =   6.5998146309501E-02
(PID.TID 0000.0001) %MON trAdv_CFL_w_max              =   2.2429520799575E-01
(PID.TID 0000.0001) %MON advcfl_uvel_max              =   6.5037178262024E-02
(PID.TID 0000.0001) %MON advcfl_vvel_max              =   5.8688522279154E-02
(PID.TID 0000.0001) %MON advcfl_wvel_max              =   2.2491673083838E-01
(PID.TID 0000.0001) %MON advcfl_W_hf_max              =   2.3501346098834E-01
(PID.TID 0000.0001) %MON pe_b_mean                    =   4.2254039602464E-04
(PID.TID 0000.0001) %MON ke_max                       =   9.4582193190141E-01
(PID.TID 0000.0001) %MON ke_mean                      =   5.0435386307549E-04
(PID.TID 0000.0001) %MON ke_vol                       =   1.3349968625771E+18
(PID.TID 0000.0001) %MON vort_r_min                   =  -2.2816219959471E-05
(PID.TID 0000.0001) %MON vort_r_max                   =   2.3961733984071E-05
(PID.TID 0000.0001) %MON vort_a_mean                  =  -1.9727864647440E-05
(PID.TID 0000.0001) %MON vort_a_sd                    =   7.4543242593206E-05
(PID.TID 0000.0001) %MON vort_p_mean                  =  -2.1760541876979E-05
(PID.TID 0000.0001) %MON vort_p_sd                    =   9.7245009590366E-05
(PID.TID 0000.0001) %MON surfExpan_theta_mean         =   3.0937061191686E-08
(PID.TID 0000.0001) %MON surfExpan_salt_mean          =   1.2798427157902E-08
(PID.TID 0000.0001) // =======================================================
(PID.TID 0000.0001) // End MONITOR dynamic field statistics
(PID.TID 0000.0001) // =======================================================
(PID.TID 0000.0001) // =======================================================
(PID.TID 0000.0001) // Begin MONITOR SEAICE statistics
(PID.TID 0000.0001) // =======================================================
(PID.TID 0000.0001) %MON seaice_tsnumber              =                    70
(PID.TID 0000.0001) %MON seaice_time_sec              =   2.5200000000000E+05
(PID.TID 0000.0001) %MON seaice_uice_max              =   4.0000000000000E-01
(PID.TID 0000.0001) %MON seaice_uice_min              =  -4.0000000000000E-01
(PID.TID 0000.0001) %MON seaice_uice_mean             =   8.5241481074383E-03
(PID.TID 0000.0001) %MON seaice_uice_sd               =   1.9543719993015E-01
(PID.TID 0000.0001) %MON seaice_uice_del2             =   1.9003585675093E-04
(PID.TID 0000.0001) %MON seaice_vice_max              =   4.0000000000000E-01
(PID.TID 0000.0001) %MON seaice_vice_min              =  -4.0000000000000E-01
(PID.TID 0000.0001) %MON seaice_vice_mean             =  -6.2698906852121E-03
(PID.TID 0000.0001) %MON seaice_vice_sd               =   2.0397626699963E-01
(PID.TID 0000.0001) %MON seaice_vice_del2             =   1.9743604371914E-04
(PID.TID 0000.0001) %MON seaice_area_max              =   9.5000000000000E-01
(PID.TID 0000.0001) %MON seaice_area_min              =   0.0000000000000E+00
(PID.TID 0000.0001) %MON seaice_area_mean             =   3.8136154080011E-02
(PID.TID 0000.0001) %MON seaice_area_sd               =   1.7697344989554E-01
(PID.TID 0000.0001) %MON seaice_area_del2             =   2.6093228538682E-04
(PID.TID 0000.0001) %MON seaice_heff_max              =   3.9188371688236E+00
(PID.TID 0000.0001) %MON seaice_heff_min              =   0.0000000000000E+00
(PID.TID 0000.0001) %MON seaice_heff_mean             =   5.3670906974355E-02
(PID.TID 0000.0001) %MON seaice_heff_sd               =   3.0922954828944E-01
(PID.TID 0000.0001) %MON seaice_heff_del2             =   2.9855092202638E-04
(PID.TID 0000.0001) %MON seaice_hsnow_max             =   9.5797295478518E-01
(PID.TID 0000.0001) %MON seaice_hsnow_min             =  -2.4096471363709E-05
(PID.TID 0000.0001) %MON seaice_hsnow_mean            =   5.1968597174877E-03
(PID.TID 0000.0001) %MON seaice_hsnow_sd              =   3.1386463247401E-02
(PID.TID 0000.0001) %MON seaice_hsnow_del2            =   5.2925155346504E-05
(PID.TID 0000.0001) // =======================================================
(PID.TID 0000.0001) // End MONITOR SEAICE statistics
(PID.TID 0000.0001) // =======================================================
(PID.TID 0000.0001) // =======================================================
(PID.TID 0000.0001) // Begin MONITOR EXF statistics
(PID.TID 0000.0001) // =======================================================
(PID.TID 0000.0001) %MON exf_tsnumber                 =                    70
(PID.TID 0000.0001) %MON exf_time_sec                 =   2.5200000000000E+05
(PID.TID 0000.0001) %MON exf_ustress_max              =   1.1015598456037E+00
(PID.TID 0000.0001) %MON exf_ustress_min              =  -1.4022444686042E+00
(PID.TID 0000.0001) %MON exf_ustress_mean             =   1.0006118266210E-02
(PID.TID 0000.0001) %MON exf_ustress_sd               =   1.1194052854114E-01
(PID.TID 0000.0001) %MON exf_ustress_del2             =   9.4617000634244E-05
(PID.TID 0000.0001) %MON exf_vstress_max              =   1.1819490293662E+00
(PID.TID 0000.0001) %MON exf_vstress_min              =  -1.0251005391280E+00
(PID.TID 0000.0001) %MON exf_vstress_mean             =  -1.5891616937635E-04
(PID.TID 0000.0001) %MON exf_vstress_sd               =   1.1521486128261E-01
(PID.TID 0000.0001) %MON exf_vstress_del2             =   8.3376563873367E-05
(PID.TID 0000.0001) %MON exf_hflux_max                =   1.0703584578712E+03
(PID.TID 0000.0001) %MON exf_hflux_min                =  -7.1705322418444E+02
(PID.TID 0000.0001) %MON exf_hflux_mean               =   2.4375819283987E+01
(PID.TID 0000.0001) %MON exf_hflux_sd                 =   2.6388993114270E+02
(PID.TID 0000.0001) %MON exf_hflux_del2               =   4.6011734803152E-01
(PID.TID 0000.0001) %MON exf_sflux_max                =   2.5905198298046E-07
(PID.TID 0000.0001) %MON exf_sflux_min                =  -2.6045172160464E-06
(PID.TID 0000.0001) %MON exf_sflux_mean               =   5.3668013534450E-09
(PID.TID 0000.0001) %MON exf_sflux_sd                 =   8.9871505089279E-08
(PID.TID 0000.0001) %MON exf_sflux_del2               =   2.3049836282520E-10
(PID.TID 0000.0001) %MON exf_wspeed_max               =   3.0606380621592E+01
(PID.TID 0000.0001) %MON exf_wspeed_min               =   2.6718429848552E-01
(PID.TID 0000.0001) %MON exf_wspeed_mean              =   6.9472077407725E+00
(PID.TID 0000.0001) %MON exf_wspeed_sd                =   3.1775313675017E+00
(PID.TID 0000.0001) %MON exf_wspeed_del2              =   1.2168148851737E-02
(PID.TID 0000.0001) %MON exf_atemp_max                =   3.0772969601949E+02
(PID.TID 0000.0001) %MON exf_atemp_min                =   2.2910870081584E+02
(PID.TID 0000.0001) %MON exf_atemp_mean               =   2.8914486498430E+02
(PID.TID 0000.0001) %MON exf_atemp_sd                 =   1.2413576493405E+01
(PID.TID 0000.0001) %MON exf_atemp_del2               =   2.6484829599190E-02
(PID.TID 0000.0001) %MON exf_aqh_max                  =   2.2018125901620E-02
(PID.TID 0000.0001) %MON exf_aqh_min                  =   6.7625856900122E-05
(PID.TID 0000.0001) %MON exf_aqh_mean                 =   1.0884102860710E-02
(PID.TID 0000.0001) %MON exf_aqh_sd                   =   5.6592109595962E-03
(PID.TID 0000.0001) %MON exf_aqh_del2                 =   1.4558256083909E-05
(PID.TID 0000.0001) %MON exf_lwflux_max               =   2.1397249456531E+02
(PID.TID 0000.0001) %MON exf_lwflux_min               =  -4.0200392062110E+01
(PID.TID 0000.0001) %MON exf_lwflux_mean              =   4.8970568839027E+01
(PID.TID 0000.0001) %MON exf_lwflux_sd                =   2.9480278531877E+01
(PID.TID 0000.0001) %MON exf_lwflux_del2              =   1.0134657645847E-01
(PID.TID 0000.0001) %MON exf_evap_max                 =   2.6669796804170E-07
(PID.TID 0000.0001) %MON exf_evap_min                 =  -2.4089143321476E-08
(PID.TID 0000.0001) %MON exf_evap_mean                =   4.6289990393147E-08
(PID.TID 0000.0001) %MON exf_evap_sd                  =   2.9535448585643E-08
(PID.TID 0000.0001) %MON exf_evap_del2                =   7.6741682258118E-11
(PID.TID 0000.0001) %MON exf_precip_max               =   2.6183889379657E-06
(PID.TID 0000.0001) %MON exf_precip_min               =  -1.5719865261351E-08
(PID.TID 0000.0001) %MON exf_precip_mean              =   3.7907887570748E-08
(PID.TID 0000.0001) %MON exf_precip_sd                =   8.2147004943447E-08
(PID.TID 0000.0001) %MON exf_precip_del2              =   2.2639822658191E-10
(PID.TID 0000.0001) %MON exf_swflux_max               =   2.5778621530250E+01
(PID.TID 0000.0001) %MON exf_swflux_min               =  -8.1196764424352E+02
(PID.TID 0000.0001) %MON exf_swflux_mean              =  -1.7108511073241E+02
(PID.TID 0000.0001) %MON exf_swflux_sd                =   2.0896165914403E+02
(PID.TID 0000.0001) %MON exf_swflux_del2              =   3.6309571554867E-01
(PID.TID 0000.0001) %MON exf_swdown_max               =   8.7579514058431E+02
(PID.TID 0000.0001) %MON exf_swdown_min               =  -3.4544944763184E+01
(PID.TID 0000.0001) %MON exf_swdown_mean              =   1.8527092216724E+02
(PID.TID 0000.0001) %MON exf_swdown_sd                =   2.2582543033634E+02
(PID.TID 0000.0001) %MON exf_swdown_del2              =   3.9336669030424E-01
(PID.TID 0000.0001) %MON exf_lwdown_max               =   5.1581400553385E+02
(PID.TID 0000.0001) %MON exf_lwdown_min               =   8.6083672841390E+01
(PID.TID 0000.0001) %MON exf_lwdown_mean              =   3.6281067365898E+02
(PID.TID 0000.0001) %MON exf_lwdown_sd                =   6.5791057807465E+01
(PID.TID 0000.0001) %MON exf_lwdown_del2              =   4.8402319440058E-01
(PID.TID 0000.0001) %MON exf_runoff_max               =   2.1317053144612E-06
(PID.TID 0000.0001) %MON exf_runoff_min               =   0.0000000000000E+00
(PID.TID 0000.0001) %MON exf_runoff_mean              =   3.0153014689539E-09
(PID.TID 0000.0001) %MON exf_runoff_sd                =   2.4850388065986E-08
(PID.TID 0000.0001) %MON exf_runoff_del2              =   1.8447716864405E-11
(PID.TID 0000.0001) // =======================================================
(PID.TID 0000.0001) // End MONITOR EXF statistics
(PID.TID 0000.0001) // =======================================================
 SEAICE_LSR: Residual Initial ipass,Uice,Vice=    1  1.38832678E-01  1.90491206E-01
 SEAICE_LSR: Residual FrDrift U_fd,V_fd=  7.42636367E+01  8.72980188E+01
 SEAICE_LSR (ipass=   1) iters,dU,Resid=   236  1.74349256E-04  1.31023356E-03
 SEAICE_LSR (ipass=   1) iters,dV,Resid=   236  1.97378137E-04  2.25216325E-03
 SEAICE_LSR: Residual Initial ipass,Uice,Vice=    2  3.22875441E-01  5.36344071E-01
 SEAICE_LSR: Residual FrDrift U_fd,V_fd=  7.44218939E+01  8.72117155E+01
 SEAICE_LSR (ipass=   2) iters,dU,Resid=   118  3.71960905E-05  3.52731254E-04
 SEAICE_LSR (ipass=   2) iters,dV,Resid=   118  1.97287035E-04  1.74488841E-03
 cg2d: Sum(rhs),rhsMax =   5.67510470752730E+00  4.28580200089142E-01
 cg2d: Sum(rhs),rhsMax =   5.71152805753695E+00  4.23002493043913E-01
(PID.TID 0000.0001)      cg2d_init_res =   2.62090927040514E-01
(PID.TID 0000.0001)      cg2d_iters(min,last) =      -1      91
(PID.TID 0000.0001)      cg2d_last_res =   6.88388498305158E-06
(PID.TID 0000.0001) // =======================================================
(PID.TID 0000.0001) // Begin MONITOR dynamic field statistics
(PID.TID 0000.0001) // =======================================================
(PID.TID 0000.0001) %MON time_tsnumber                =                    72
(PID.TID 0000.0001) %MON time_secondsf                =   2.5920000000000E+05
(PID.TID 0000.0001) %MON dynstat_eta_max              =   1.2382225960671E+00
(PID.TID 0000.0001) %MON dynstat_eta_min              =  -4.0839912286062E+00
(PID.TID 0000.0001) %MON dynstat_eta_mean             =  -2.8907819819229E-03
(PID.TID 0000.0001) %MON dynstat_eta_sd               =   7.4022674146997E-01
(PID.TID 0000.0001) %MON dynstat_eta_del2             =   2.8609262812586E-04
(PID.TID 0000.0001) %MON dynstat_uvel_max             =   9.4740815050972E-01
(PID.TID 0000.0001) %MON dynstat_uvel_min             =  -8.2255413681153E-01
(PID.TID 0000.0001) %MON dynstat_uvel_mean            =   1.4141615000895E-03
(PID.TID 0000.0001) %MON dynstat_uvel_sd              =   2.1457151129562E-02
(PID.TID 0000.0001) %MON dynstat_uvel_del2            =   1.2933998998232E-05
(PID.TID 0000.0001) %MON dynstat_vvel_max             =   1.3755152291475E+00
(PID.TID 0000.0001) %MON dynstat_vvel_min             =  -9.9636616781919E-01
(PID.TID 0000.0001) %MON dynstat_vvel_mean            =   1.1541190323314E-03
(PID.TID 0000.0001) %MON dynstat_vvel_sd              =   2.4133997030346E-02
(PID.TID 0000.0001) %MON dynstat_vvel_del2            =   1.3280124451598E-05
(PID.TID 0000.0001) %MON dynstat_wvel_max             =   5.3920253800792E-04
(PID.TID 0000.0001) %MON dynstat_wvel_min             =  -1.2525753369702E-03
(PID.TID 0000.0001) %MON dynstat_wvel_mean            =   2.9474086899157E-09
(PID.TID 0000.0001) %MON dynstat_wvel_sd              =   2.5228472383440E-05
(PID.TID 0000.0001) %MON dynstat_wvel_del2            =   2.4027297977982E-08
(PID.TID 0000.0001) %MON dynstat_theta_max            =   3.2780872404137E+01
(PID.TID 0000.0001) %MON dynstat_theta_min            =  -2.0416336672160E+00
(PID.TID 0000.0001) %MON dynstat_theta_mean           =   3.5907379675741E+00
(PID.TID 0000.0001) %MON dynstat_theta_sd             =   4.4364039175349E+00
(PID.TID 0000.0001) %MON dynstat_theta_del2           =   1.0516407056853E-04
(PID.TID 0000.0001) %MON dynstat_salt_max             =   4.0711386525755E+01
(PID.TID 0000.0001) %MON dynstat_salt_min             =   1.7547260517955E+01
(PID.TID 0000.0001) %MON dynstat_salt_mean            =   3.4725701210027E+01
(PID.TID 0000.0001) %MON dynstat_salt_sd              =   3.7883090992017E-01
(PID.TID 0000.0001) %MON dynstat_salt_del2            =   2.5510893533614E-05
(PID.TID 0000.0001) %MON dynstat_sst_max              =   3.2780872404137E+01
(PID.TID 0000.0001) %MON dynstat_sst_min              =  -1.9609847713727E+00
(PID.TID 0000.0001) %MON dynstat_sst_mean             =   1.8532405997692E+01
(PID.TID 0000.0001) %MON dynstat_sst_sd               =   1.0054508848262E+01
(PID.TID 0000.0001) %MON dynstat_sst_del2             =   8.9565109198898E-04
(PID.TID 0000.0001) %MON dynstat_sss_max              =   3.9737164145057E+01
(PID.TID 0000.0001) %MON dynstat_sss_min              =   1.7547260517955E+01
(PID.TID 0000.0001) %MON dynstat_sss_mean             =   3.4724039829739E+01
(PID.TID 0000.0001) %MON dynstat_sss_sd               =   1.2173812707235E+00
(PID.TID 0000.0001) %MON dynstat_sss_del2             =   3.8967772003411E-04
(PID.TID 0000.0001) %MON forcing_qnet_max             =   8.4379535184766E+02
(PID.TID 0000.0001) %MON forcing_qnet_min             =  -6.6082358070471E+02
(PID.TID 0000.0001) %MON forcing_qnet_mean            =   6.7874919344325E+00
(PID.TID 0000.0001) %MON forcing_qnet_sd              =   2.2191876704683E+02
(PID.TID 0000.0001) %MON forcing_qnet_del2            =   1.4742423323183E-01
(PID.TID 0000.0001) %MON forcing_qsw_max              =   2.5741803392887E+01
(PID.TID 0000.0001) %MON forcing_qsw_min              =  -7.3313172483613E+02
(PID.TID 0000.0001) %MON forcing_qsw_mean             =  -1.7196974257250E+02
(PID.TID 0000.0001) %MON forcing_qsw_sd               =   1.8627267323107E+02
(PID.TID 0000.0001) %MON forcing_qsw_del2             =   7.0632140426829E-02
(PID.TID 0000.0001) %MON forcing_empmr_max            =   1.7936548149518E-03
(PID.TID 0000.0001) %MON forcing_empmr_min            =  -2.4784079386822E-03
(PID.TID 0000.0001) %MON forcing_empmr_mean           =   5.2693347069269E-06
(PID.TID 0000.0001) %MON forcing_empmr_sd             =   1.0223238907845E-04
(PID.TID 0000.0001) %MON forcing_empmr_del2           =   4.2762332148187E-07
(PID.TID 0000.0001) %MON forcing_fu_max               =   1.0030587613583E+00
(PID.TID 0000.0001) %MON forcing_fu_min               =  -1.8469841124247E+00
(PID.TID 0000.0001) %MON forcing_fu_mean              =   9.4762304529026E-03
(PID.TID 0000.0001) %MON forcing_fu_sd                =   1.1432412188613E-01
(PID.TID 0000.0001) %MON forcing_fu_del2              =   9.5173369186686E-05
(PID.TID 0000.0001) %MON forcing_fv_max               =   1.1346355775992E+00
(PID.TID 0000.0001) %MON forcing_fv_min               =  -9.3858211239179E-01
(PID.TID 0000.0001) %MON forcing_fv_mean              =   3.5443834313324E-04
(PID.TID 0000.0001) %MON forcing_fv_sd                =   1.1946171247095E-01
(PID.TID 0000.0001) %MON forcing_fv_del2              =   9.4509333090448E-05
(PID.TID 0000.0001) %MON trAdv_CFL_u_max              =   6.2154047202949E-02
(PID.TID 0000.0001) %MON trAdv_CFL_v_max              =   6.1229564795580E-02
(PID.TID 0000.0001) %MON trAdv_CFL_w_max              =   2.1758630177756E-01
(PID.TID 0000.0001) %MON advcfl_uvel_max              =   6.1950438309734E-02
(PID.TID 0000.0001) %MON advcfl_vvel_max              =   5.3923096115639E-02
(PID.TID 0000.0001) %MON advcfl_wvel_max              =   2.1771462664935E-01
(PID.TID 0000.0001) %MON advcfl_W_hf_max              =   2.2830461580374E-01
(PID.TID 0000.0001) %MON pe_b_mean                    =   4.2201022674383E-04
(PID.TID 0000.0001) %MON ke_max                       =   9.5374348149512E-01
(PID.TID 0000.0001) %MON ke_mean                      =   5.0447288982587E-04
(PID.TID 0000.0001) %MON ke_vol                       =   1.3349968485993E+18
(PID.TID 0000.0001) %MON vort_r_min                   =  -2.1836815305830E-05
(PID.TID 0000.0001) %MON vort_r_max                   =   2.4031569687625E-05
(PID.TID 0000.0001) %MON vort_a_mean                  =  -1.9727864647440E-05
(PID.TID 0000.0001) %MON vort_a_sd                    =   7.4543239028019E-05
(PID.TID 0000.0001) %MON vort_p_mean                  =  -2.1760542125277E-05
(PID.TID 0000.0001) %MON vort_p_sd                    =   9.7245042203689E-05
(PID.TID 0000.0001) %MON surfExpan_theta_mean         =   3.1086435082096E-09
(PID.TID 0000.0001) %MON surfExpan_salt_mean          =   1.2010109264598E-08
(PID.TID 0000.0001) // =======================================================
(PID.TID 0000.0001) // End MONITOR dynamic field statistics
(PID.TID 0000.0001) // =======================================================
(PID.TID 0000.0001) // =======================================================
(PID.TID 0000.0001) // Begin MONITOR SEAICE statistics
(PID.TID 0000.0001) // =======================================================
(PID.TID 0000.0001) %MON seaice_tsnumber              =                    72
(PID.TID 0000.0001) %MON seaice_time_sec              =   2.5920000000000E+05
(PID.TID 0000.0001) %MON seaice_uice_max              =   4.0000000000000E-01
(PID.TID 0000.0001) %MON seaice_uice_min              =  -4.0000000000000E-01
(PID.TID 0000.0001) %MON seaice_uice_mean             =   8.0035772063041E-03
(PID.TID 0000.0001) %MON seaice_uice_sd               =   1.9495655495430E-01
(PID.TID 0000.0001) %MON seaice_uice_del2             =   1.8582362381595E-04
(PID.TID 0000.0001) %MON seaice_vice_max              =   4.0000000000000E-01
(PID.TID 0000.0001) %MON seaice_vice_min              =  -4.0000000000000E-01
(PID.TID 0000.0001) %MON seaice_vice_mean             =  -5.0687694650019E-03
(PID.TID 0000.0001) %MON seaice_vice_sd               =   2.0510587317856E-01
(PID.TID 0000.0001) %MON seaice_vice_del2             =   1.9360302040869E-04
(PID.TID 0000.0001) %MON seaice_area_max              =   9.5000000000000E-01
(PID.TID 0000.0001) %MON seaice_area_min              =   0.0000000000000E+00
(PID.TID 0000.0001) %MON seaice_area_mean             =   3.8117686867863E-02
(PID.TID 0000.0001) %MON seaice_area_sd               =   1.7693419577423E-01
(PID.TID 0000.0001) %MON seaice_area_del2             =   2.6054130276678E-04
(PID.TID 0000.0001) %MON seaice_heff_max              =   3.9208917405017E+00
(PID.TID 0000.0001) %MON seaice_heff_min              =   0.0000000000000E+00
(PID.TID 0000.0001) %MON seaice_heff_mean             =   5.3682926093914E-02
(PID.TID 0000.0001) %MON seaice_heff_sd               =   3.0936409012384E-01
(PID.TID 0000.0001) %MON seaice_heff_del2             =   2.9849098820950E-04
(PID.TID 0000.0001) %MON seaice_hsnow_max             =   9.5723712925935E-01
(PID.TID 0000.0001) %MON seaice_hsnow_min             =  -3.8537653068715E-05
(PID.TID 0000.0001) %MON seaice_hsnow_mean            =   5.1949830972970E-03
(PID.TID 0000.0001) %MON seaice_hsnow_sd              =   3.1376946896903E-02
(PID.TID 0000.0001) %MON seaice_hsnow_del2            =   5.2581517055866E-05
(PID.TID 0000.0001) // =======================================================
(PID.TID 0000.0001) // End MONITOR SEAICE statistics
(PID.TID 0000.0001) // =======================================================
(PID.TID 0000.0001) // =======================================================
(PID.TID 0000.0001) // Begin MONITOR EXF statistics
(PID.TID 0000.0001) // =======================================================
(PID.TID 0000.0001) %MON exf_tsnumber                 =                    72
(PID.TID 0000.0001) %MON exf_time_sec                 =   2.5920000000000E+05
(PID.TID 0000.0001) %MON exf_ustress_max              =   1.0336043834686E+00
(PID.TID 0000.0001) %MON exf_ustress_min              =  -1.3660543100481E+00
(PID.TID 0000.0001) %MON exf_ustress_mean             =   1.0030641603365E-02
(PID.TID 0000.0001) %MON exf_ustress_sd               =   1.1017982334521E-01
(PID.TID 0000.0001) %MON exf_ustress_del2             =   8.9602320577091E-05
(PID.TID 0000.0001) %MON exf_vstress_max              =   1.1533801555634E+00
(PID.TID 0000.0001) %MON exf_vstress_min              =  -1.1182630956173E+00
(PID.TID 0000.0001) %MON exf_vstress_mean             =   3.7737849451545E-04
(PID.TID 0000.0001) %MON exf_vstress_sd               =   1.1533864420942E-01
(PID.TID 0000.0001) %MON exf_vstress_del2             =   7.8396740780454E-05
(PID.TID 0000.0001) %MON exf_hflux_max                =   1.2896266196941E+03
(PID.TID 0000.0001) %MON exf_hflux_min                =  -6.0468845040838E+02
(PID.TID 0000.0001) %MON exf_hflux_mean               =   2.1577537559148E+01
(PID.TID 0000.0001) %MON exf_hflux_sd                 =   2.3833850736876E+02
(PID.TID 0000.0001) %MON exf_hflux_del2               =   4.3395242004928E-01
(PID.TID 0000.0001) %MON exf_sflux_max                =   2.5500525699667E-07
(PID.TID 0000.0001) %MON exf_sflux_min                =  -2.3523314073420E-06
(PID.TID 0000.0001) %MON exf_sflux_mean               =   5.1018982240593E-09
(PID.TID 0000.0001) %MON exf_sflux_sd                 =   8.5492917355737E-08
(PID.TID 0000.0001) %MON exf_sflux_del2               =   2.0385153805973E-10
(PID.TID 0000.0001) %MON exf_wspeed_max               =   2.4442184925079E+01
(PID.TID 0000.0001) %MON exf_wspeed_min               =   4.5646893978119E-01
(PID.TID 0000.0001) %MON exf_wspeed_mean              =   6.9744271598934E+00
(PID.TID 0000.0001) %MON exf_wspeed_sd                =   3.1335734937879E+00
(PID.TID 0000.0001) %MON exf_wspeed_del2              =   1.2036293302813E-02
(PID.TID 0000.0001) %MON exf_atemp_max                =   3.0671207847595E+02
(PID.TID 0000.0001) %MON exf_atemp_min                =   2.2959764328003E+02
(PID.TID 0000.0001) %MON exf_atemp_mean               =   2.8912550781247E+02
(PID.TID 0000.0001) %MON exf_atemp_sd                 =   1.2376723030138E+01
(PID.TID 0000.0001) %MON exf_atemp_del2               =   2.6437458417023E-02
(PID.TID 0000.0001) %MON exf_aqh_max                  =   2.2168491967022E-02
(PID.TID 0000.0001) %MON exf_aqh_min                  =   6.5990090661217E-05
(PID.TID 0000.0001) %MON exf_aqh_mean                 =   1.0886999379702E-02
(PID.TID 0000.0001) %MON exf_aqh_sd                   =   5.6509363405101E-03
(PID.TID 0000.0001) %MON exf_aqh_del2                 =   1.4552832506974E-05
(PID.TID 0000.0001) %MON exf_lwflux_max               =   2.1161989151337E+02
(PID.TID 0000.0001) %MON exf_lwflux_min               =  -2.5482367148487E+01
(PID.TID 0000.0001) %MON exf_lwflux_mean              =   4.9130631717975E+01
(PID.TID 0000.0001) %MON exf_lwflux_sd                =   2.9111980943634E+01
(PID.TID 0000.0001) %MON exf_lwflux_del2              =   1.0054072665231E-01
(PID.TID 0000.0001) %MON exf_evap_max                 =   2.6268855853334E-07
(PID.TID 0000.0001) %MON exf_evap_min                 =  -1.6167054080168E-08
(PID.TID 0000.0001) %MON exf_evap_mean                =   4.6501277620375E-08
(PID.TID 0000.0001) %MON exf_evap_sd                  =   2.9560573672420E-08
(PID.TID 0000.0001) %MON exf_evap_del2                =   7.5846838629944E-11
(PID.TID 0000.0001) %MON exf_precip_max               =   2.3655140921619E-06
(PID.TID 0000.0001) %MON exf_precip_min               =  -1.5927111185476E-08
(PID.TID 0000.0001) %MON exf_precip_mean              =   3.8384982352988E-08
(PID.TID 0000.0001) %MON exf_precip_sd                =   7.7655765458720E-08
(PID.TID 0000.0001) %MON exf_precip_del2              =   2.0136923593350E-10
(PID.TID 0000.0001) %MON exf_swflux_max               =   2.5704984976392E+01
(PID.TID 0000.0001) %MON exf_swflux_min               =  -6.9874575704005E+02
(PID.TID 0000.0001) %MON exf_swflux_mean              =  -1.7485426979156E+02
(PID.TID 0000.0001) %MON exf_swflux_sd                =   1.7684980254021E+02
(PID.TID 0000.0001) %MON exf_swflux_del2              =   3.3691294546919E-01
(PID.TID 0000.0001) %MON exf_swdown_max               =   7.5411715698242E+02
(PID.TID 0000.0001) %MON exf_swdown_min               =  -3.4496063232422E+01
(PID.TID 0000.0001) %MON exf_swdown_mean              =   1.8950349204490E+02
(PID.TID 0000.0001) %MON exf_swdown_sd                =   1.9115510455355E+02
(PID.TID 0000.0001) %MON exf_swdown_del2              =   3.6546142402125E-01
(PID.TID 0000.0001) %MON exf_lwdown_max               =   4.9091589355469E+02
(PID.TID 0000.0001) %MON exf_lwdown_min               =   8.8509044647217E+01
(PID.TID 0000.0001) %MON exf_lwdown_mean              =   3.6264560645566E+02
(PID.TID 0000.0001) %MON exf_lwdown_sd                =   6.5701196336704E+01
(PID.TID 0000.0001) %MON exf_lwdown_del2              =   4.8359788677275E-01
(PID.TID 0000.0001) %MON exf_runoff_max               =   2.1348594732591E-06
(PID.TID 0000.0001) %MON exf_runoff_min               =   0.0000000000000E+00
(PID.TID 0000.0001) %MON exf_runoff_mean              =   3.0143970433277E-09
(PID.TID 0000.0001) %MON exf_runoff_sd                =   2.4880175566452E-08
(PID.TID 0000.0001) %MON exf_runoff_del2              =   1.8458858033623E-11
(PID.TID 0000.0001) // =======================================================
(PID.TID 0000.0001) // End MONITOR EXF statistics
(PID.TID 0000.0001) // =======================================================
 SEAICE_LSR: Residual Initial ipass,Uice,Vice=    1  1.33351726E-01  1.93658960E-01
 SEAICE_LSR: Residual FrDrift U_fd,V_fd=  7.84566144E+01  8.76832196E+01
 SEAICE_LSR (ipass=   1) iters,dU,Resid=   242  1.98641691E-04  1.58730568E-03
 SEAICE_LSR (ipass=   1) iters,dV,Resid=   242  9.78317335E-05  8.74385478E-04
 SEAICE_LSR: Residual Initial ipass,Uice,Vice=    2  2.36072734E-01  3.16577177E-01
 SEAICE_LSR: Residual FrDrift U_fd,V_fd=  7.86079023E+01  8.77458847E+01
 SEAICE_LSR (ipass=   2) iters,dU,Resid=   118  6.17273376E-05  4.40985139E-04
 SEAICE_LSR (ipass=   2) iters,dV,Resid=   118  1.95394368E-04  1.78927661E-03
 cg2d: Sum(rhs),rhsMax =   5.74645678633835E+00  4.16104023801431E-01
 cg2d: Sum(rhs),rhsMax =   5.78010612080188E+00  4.08397246530123E-01
(PID.TID 0000.0001)      cg2d_init_res =   2.69538797068786E-01
(PID.TID 0000.0001)      cg2d_iters(min,last) =      -1      93
(PID.TID 0000.0001)      cg2d_last_res =   6.39438095248196E-06
(PID.TID 0000.0001) // =======================================================
(PID.TID 0000.0001) // Begin MONITOR dynamic field statistics
(PID.TID 0000.0001) // =======================================================
(PID.TID 0000.0001) %MON time_tsnumber                =                    74
(PID.TID 0000.0001) %MON time_secondsf                =   2.6640000000000E+05
(PID.TID 0000.0001) %MON dynstat_eta_max              =   1.1331281847368E+00
(PID.TID 0000.0001) %MON dynstat_eta_min              =  -4.0852210866634E+00
(PID.TID 0000.0001) %MON dynstat_eta_mean             =  -2.9254914725608E-03
(PID.TID 0000.0001) %MON dynstat_eta_sd               =   7.3990766233989E-01
(PID.TID 0000.0001) %MON dynstat_eta_del2             =   2.8552050044208E-04
(PID.TID 0000.0001) %MON dynstat_uvel_max             =   9.2011027594811E-01
(PID.TID 0000.0001) %MON dynstat_uvel_min             =  -8.1991269856860E-01
(PID.TID 0000.0001) %MON dynstat_uvel_mean            =   1.4120005364430E-03
(PID.TID 0000.0001) %MON dynstat_uvel_sd              =   2.1425358548941E-02
(PID.TID 0000.0001) %MON dynstat_uvel_del2            =   1.2870240215493E-05
(PID.TID 0000.0001) %MON dynstat_vvel_max             =   1.3795104729794E+00
(PID.TID 0000.0001) %MON dynstat_vvel_min             =  -9.9807289548861E-01
(PID.TID 0000.0001) %MON dynstat_vvel_mean            =   1.1551188223372E-03
(PID.TID 0000.0001) %MON dynstat_vvel_sd              =   2.4168990166611E-02
(PID.TID 0000.0001) %MON dynstat_vvel_del2            =   1.3231953434446E-05
(PID.TID 0000.0001) %MON dynstat_wvel_max             =   5.2575335889870E-04
(PID.TID 0000.0001) %MON dynstat_wvel_min             =  -1.2113237539663E-03
(PID.TID 0000.0001) %MON dynstat_wvel_mean            =   2.1947536394169E-09
(PID.TID 0000.0001) %MON dynstat_wvel_sd              =   2.5241719090484E-05
(PID.TID 0000.0001) %MON dynstat_wvel_del2            =   2.3793238997715E-08
(PID.TID 0000.0001) %MON dynstat_theta_max            =   3.2757344081795E+01
(PID.TID 0000.0001) %MON dynstat_theta_min            =  -2.0416279956223E+00
(PID.TID 0000.0001) %MON dynstat_theta_mean           =   3.5907356021601E+00
(PID.TID 0000.0001) %MON dynstat_theta_sd             =   4.4363551362397E+00
(PID.TID 0000.0001) %MON dynstat_theta_del2           =   1.0515681532484E-04
(PID.TID 0000.0001) %MON dynstat_salt_max             =   4.0711385261305E+01
(PID.TID 0000.0001) %MON dynstat_salt_min             =   1.7550032129717E+01
(PID.TID 0000.0001) %MON dynstat_salt_mean            =   3.4725701521677E+01
(PID.TID 0000.0001) %MON dynstat_salt_sd              =   3.7882865373523E-01
(PID.TID 0000.0001) %MON dynstat_salt_del2            =   2.5493530461259E-05
(PID.TID 0000.0001) %MON dynstat_sst_max              =   3.2757310130639E+01
(PID.TID 0000.0001) %MON dynstat_sst_min              =  -1.9609631213071E+00
(PID.TID 0000.0001) %MON dynstat_sst_mean             =   1.8532450531988E+01
(PID.TID 0000.0001) %MON dynstat_sst_sd               =   1.0051663902333E+01
(PID.TID 0000.0001) %MON dynstat_sst_del2             =   8.9793415629739E-04
(PID.TID 0000.0001) %MON dynstat_sss_max              =   3.9739708782141E+01
(PID.TID 0000.0001) %MON dynstat_sss_min              =   1.7550032129717E+01
(PID.TID 0000.0001) %MON dynstat_sss_mean             =   3.4724225699173E+01
(PID.TID 0000.0001) %MON dynstat_sss_sd               =   1.2172245494568E+00
(PID.TID 0000.0001) %MON dynstat_sss_del2             =   3.8963528222515E-04
(PID.TID 0000.0001) %MON forcing_qnet_max             =   9.2494928002208E+02
(PID.TID 0000.0001) %MON forcing_qnet_min             =  -6.2349474663974E+02
(PID.TID 0000.0001) %MON forcing_qnet_mean            =   4.2125073869119E+00
(PID.TID 0000.0001) %MON forcing_qnet_sd              =   2.1796502821245E+02
(PID.TID 0000.0001) %MON forcing_qnet_del2            =   1.4779721529345E-01
(PID.TID 0000.0001) %MON forcing_qsw_max              =   2.5668166280766E+01
(PID.TID 0000.0001) %MON forcing_qsw_min              =  -7.4142258195318E+02
(PID.TID 0000.0001) %MON forcing_qsw_mean             =  -1.7557426449334E+02
(PID.TID 0000.0001) %MON forcing_qsw_sd               =   1.8244073612018E+02
(PID.TID 0000.0001) %MON forcing_qsw_del2             =   7.2279327602757E-02
(PID.TID 0000.0001) %MON forcing_empmr_max            =   1.6050086810046E-03
(PID.TID 0000.0001) %MON forcing_empmr_min            =  -2.2262885662310E-03
(PID.TID 0000.0001) %MON forcing_empmr_mean           =   4.8680202647141E-06
(PID.TID 0000.0001) %MON forcing_empmr_sd             =   1.0248284060362E-04
(PID.TID 0000.0001) %MON forcing_empmr_del2           =   4.2415273148195E-07
(PID.TID 0000.0001) %MON forcing_fu_max               =   1.0712694923083E+00
(PID.TID 0000.0001) %MON forcing_fu_min               =  -1.8442814326812E+00
(PID.TID 0000.0001) %MON forcing_fu_mean              =   9.4514956506144E-03
(PID.TID 0000.0001) %MON forcing_fu_sd                =   1.1476507596383E-01
(PID.TID 0000.0001) %MON forcing_fu_del2              =   9.5662752603471E-05
(PID.TID 0000.0001) %MON forcing_fv_max               =   1.2687080701192E+00
(PID.TID 0000.0001) %MON forcing_fv_min               =  -1.0183181564013E+00
(PID.TID 0000.0001) %MON forcing_fv_mean              =   8.3255930612533E-04
(PID.TID 0000.0001) %MON forcing_fv_sd                =   1.2180345417198E-01
(PID.TID 0000.0001) %MON forcing_fv_del2              =   9.5515258448792E-05
(PID.TID 0000.0001) %MON trAdv_CFL_u_max              =   5.8446066957410E-02
(PID.TID 0000.0001) %MON trAdv_CFL_v_max              =   5.6944125492683E-02
(PID.TID 0000.0001) %MON trAdv_CFL_w_max              =   2.0672077673725E-01
(PID.TID 0000.0001) %MON advcfl_uvel_max              =   5.7812288790279E-02
(PID.TID 0000.0001) %MON advcfl_vvel_max              =   5.5528325952633E-02
(PID.TID 0000.0001) %MON advcfl_wvel_max              =   2.0735203222074E-01
(PID.TID 0000.0001) %MON advcfl_W_hf_max              =   2.1743914897108E-01
(PID.TID 0000.0001) %MON pe_b_mean                    =   4.2149235791083E-04
(PID.TID 0000.0001) %MON ke_max                       =   9.5985673404579E-01
(PID.TID 0000.0001) %MON ke_mean                      =   5.0462894806620E-04
(PID.TID 0000.0001) %MON ke_vol                       =   1.3349968356701E+18
(PID.TID 0000.0001) %MON vort_r_min                   =  -2.1102876367977E-05
(PID.TID 0000.0001) %MON vort_r_max                   =   2.3735461612849E-05
(PID.TID 0000.0001) %MON vort_a_mean                  =  -1.9727864647440E-05
(PID.TID 0000.0001) %MON vort_a_sd                    =   7.4543235721153E-05
(PID.TID 0000.0001) %MON vort_p_mean                  =  -2.1760542346698E-05
(PID.TID 0000.0001) %MON vort_p_sd                    =   9.7245045709309E-05
(PID.TID 0000.0001) %MON surfExpan_theta_mean         =  -1.3462890027008E-08
(PID.TID 0000.0001) %MON surfExpan_salt_mean          =   1.3265969961342E-08
(PID.TID 0000.0001) // =======================================================
(PID.TID 0000.0001) // End MONITOR dynamic field statistics
(PID.TID 0000.0001) // =======================================================
(PID.TID 0000.0001) // =======================================================
(PID.TID 0000.0001) // Begin MONITOR SEAICE statistics
(PID.TID 0000.0001) // =======================================================
(PID.TID 0000.0001) %MON seaice_tsnumber              =                    74
(PID.TID 0000.0001) %MON seaice_time_sec              =   2.6640000000000E+05
(PID.TID 0000.0001) %MON seaice_uice_max              =   4.0000000000000E-01
(PID.TID 0000.0001) %MON seaice_uice_min              =  -4.0000000000000E-01
(PID.TID 0000.0001) %MON seaice_uice_mean             =   7.0613375374906E-03
(PID.TID 0000.0001) %MON seaice_uice_sd               =   1.9445465615975E-01
(PID.TID 0000.0001) %MON seaice_uice_del2             =   1.8241927188793E-04
(PID.TID 0000.0001) %MON seaice_vice_max              =   4.0000000000000E-01
(PID.TID 0000.0001) %MON seaice_vice_min              =  -4.0000000000000E-01
(PID.TID 0000.0001) %MON seaice_vice_mean             =  -4.1835439214465E-03
(PID.TID 0000.0001) %MON seaice_vice_sd               =   2.0625949347749E-01
(PID.TID 0000.0001) %MON seaice_vice_del2             =   1.9041954992270E-04
(PID.TID 0000.0001) %MON seaice_area_max              =   9.5000000000000E-01
(PID.TID 0000.0001) %MON seaice_area_min              =   0.0000000000000E+00
(PID.TID 0000.0001) %MON seaice_area_mean             =   3.8100711360620E-02
(PID.TID 0000.0001) %MON seaice_area_sd               =   1.7689385049796E-01
(PID.TID 0000.0001) %MON seaice_area_del2             =   2.5954152233949E-04
(PID.TID 0000.0001) %MON seaice_heff_max              =   3.9189030894806E+00
(PID.TID 0000.0001) %MON seaice_heff_min              =   0.0000000000000E+00
(PID.TID 0000.0001) %MON seaice_heff_mean             =   5.3693790617030E-02
(PID.TID 0000.0001) %MON seaice_heff_sd               =   3.0949480404745E-01
(PID.TID 0000.0001) %MON seaice_heff_del2             =   2.9820704822701E-04
(PID.TID 0000.0001) %MON seaice_hsnow_max             =   9.5649200321905E-01
(PID.TID 0000.0001) %MON seaice_hsnow_min             =  -5.2978834773721E-05
(PID.TID 0000.0001) %MON seaice_hsnow_mean            =   5.1930167862567E-03
(PID.TID 0000.0001) %MON seaice_hsnow_sd              =   3.1367203095936E-02
(PID.TID 0000.0001) %MON seaice_hsnow_del2            =   5.2179939945818E-05
(PID.TID 0000.0001) // =======================================================
(PID.TID 0000.0001) // End MONITOR SEAICE statistics
(PID.TID 0000.0001) // =======================================================
(PID.TID 0000.0001) // =======================================================
(PID.TID 0000.0001) // Begin MONITOR EXF statistics
(PID.TID 0000.0001) // =======================================================
(PID.TID 0000.0001) %MON exf_tsnumber                 =                    74
(PID.TID 0000.0001) %MON exf_time_sec                 =   2.6640000000000E+05
(PID.TID 0000.0001) %MON exf_ustress_max              =   1.1570320924123E+00
(PID.TID 0000.0001) %MON exf_ustress_min              =  -1.3298641514921E+00
(PID.TID 0000.0001) %MON exf_ustress_mean             =   1.0055164940521E-02
(PID.TID 0000.0001) %MON exf_ustress_sd               =   1.1322702495061E-01
(PID.TID 0000.0001) %MON exf_ustress_del2             =   9.6796223433822E-05
(PID.TID 0000.0001) %MON exf_vstress_max              =   1.4511858224869E+00
(PID.TID 0000.0001) %MON exf_vstress_min              =  -1.2114256521066E+00
(PID.TID 0000.0001) %MON exf_vstress_mean             =   9.1367315840724E-04
(PID.TID 0000.0001) %MON exf_vstress_sd               =   1.2016654113988E-01
(PID.TID 0000.0001) %MON exf_vstress_del2             =   8.7929193688562E-05
(PID.TID 0000.0001) %MON exf_hflux_max                =   1.5251276091029E+03
(PID.TID 0000.0001) %MON exf_hflux_min                =  -7.5128277513481E+02
(PID.TID 0000.0001) %MON exf_hflux_mean               =   1.8962742938476E+01
(PID.TID 0000.0001) %MON exf_hflux_sd                 =   2.5826066368652E+02
(PID.TID 0000.0001) %MON exf_hflux_del2               =   4.5605157040153E-01
(PID.TID 0000.0001) %MON exf_sflux_max                =   2.5087137569462E-07
(PID.TID 0000.0001) %MON exf_sflux_min                =  -2.1002802572135E-06
(PID.TID 0000.0001) %MON exf_sflux_mean               =   4.8555355602778E-09
(PID.TID 0000.0001) %MON exf_sflux_sd                 =   8.9685277183350E-08
(PID.TID 0000.0001) %MON exf_sflux_del2               =   2.2811388095148E-10
(PID.TID 0000.0001) %MON exf_wspeed_max               =   3.1568710486094E+01
(PID.TID 0000.0001) %MON exf_wspeed_min               =   3.2952778538068E-01
(PID.TID 0000.0001) %MON exf_wspeed_mean              =   7.0016465790143E+00
(PID.TID 0000.0001) %MON exf_wspeed_sd                =   3.1992098628014E+00
(PID.TID 0000.0001) %MON exf_wspeed_del2              =   1.2136434198712E-02
(PID.TID 0000.0001) %MON exf_atemp_max                =   3.0569446093241E+02
(PID.TID 0000.0001) %MON exf_atemp_min                =   2.3008658574422E+02
(PID.TID 0000.0001) %MON exf_atemp_mean               =   2.8910615064065E+02
(PID.TID 0000.0001) %MON exf_atemp_sd                 =   1.2348333238952E+01
(PID.TID 0000.0001) %MON exf_atemp_del2               =   2.6412814118709E-02
(PID.TID 0000.0001) %MON exf_aqh_max                  =   2.2533034595350E-02
(PID.TID 0000.0001) %MON exf_aqh_min                  =   6.4354324422311E-05
(PID.TID 0000.0001) %MON exf_aqh_mean                 =   1.0889895898694E-02
(PID.TID 0000.0001) %MON exf_aqh_sd                   =   5.6500860758714E-03
(PID.TID 0000.0001) %MON exf_aqh_del2                 =   1.4570616423851E-05
(PID.TID 0000.0001) %MON exf_lwflux_max               =   2.0926728401385E+02
(PID.TID 0000.0001) %MON exf_lwflux_min               =  -2.7469146140160E+01
(PID.TID 0000.0001) %MON exf_lwflux_mean              =   4.9289403323453E+01
(PID.TID 0000.0001) %MON exf_lwflux_sd                =   2.9450875063910E+01
(PID.TID 0000.0001) %MON exf_lwflux_del2              =   1.0119943438923E-01
(PID.TID 0000.0001) %MON exf_evap_max                 =   2.6305210773317E-07
(PID.TID 0000.0001) %MON exf_evap_min                 =  -1.8517636957916E-08
(PID.TID 0000.0001) %MON exf_evap_mean                =   4.6731105313208E-08
(PID.TID 0000.0001) %MON exf_evap_sd                  =   3.0324015576094E-08
(PID.TID 0000.0001) %MON exf_evap_del2                =   7.6892037078372E-11
(PID.TID 0000.0001) %MON exf_precip_max               =   2.1126392463581E-06
(PID.TID 0000.0001) %MON exf_precip_min               =  -1.6345621448958E-08
(PID.TID 0000.0001) %MON exf_precip_mean              =   3.8862077135229E-08
(PID.TID 0000.0001) %MON exf_precip_sd                =   8.2211368636109E-08
(PID.TID 0000.0001) %MON exf_precip_del2              =   2.2687151732482E-10
(PID.TID 0000.0001) %MON exf_swflux_max               =   2.5631347306009E+01
(PID.TID 0000.0001) %MON exf_swflux_min               =  -8.0815710561260E+02
(PID.TID 0000.0001) %MON exf_swflux_mean              =  -1.7862355574028E+02
(PID.TID 0000.0001) %MON exf_swflux_sd                =   2.0254080098130E+02
(PID.TID 0000.0001) %MON exf_swflux_del2              =   3.6630225073516E-01
(PID.TID 0000.0001) %MON exf_swdown_max               =   8.7146665700277E+02
(PID.TID 0000.0001) %MON exf_swdown_min               =  -3.4508084615072E+01
(PID.TID 0000.0001) %MON exf_swdown_mean              =   1.9373606192257E+02
(PID.TID 0000.0001) %MON exf_swdown_sd                =   2.1909869344109E+02
(PID.TID 0000.0001) %MON exf_swdown_del2              =   3.9775342039278E-01
(PID.TID 0000.0001) %MON exf_lwdown_max               =   4.6601778157552E+02
(PID.TID 0000.0001) %MON exf_lwdown_min               =   9.0934416453044E+01
(PID.TID 0000.0001) %MON exf_lwdown_mean              =   3.6248053925234E+02
(PID.TID 0000.0001) %MON exf_lwdown_sd                =   6.5947021305851E+01
(PID.TID 0000.0001) %MON exf_lwdown_del2              =   4.8349706909944E-01
(PID.TID 0000.0001) %MON exf_runoff_max               =   2.1380136320570E-06
(PID.TID 0000.0001) %MON exf_runoff_min               =   0.0000000000000E+00
(PID.TID 0000.0001) %MON exf_runoff_mean              =   3.0134926177014E-09
(PID.TID 0000.0001) %MON exf_runoff_sd                =   2.4909979420844E-08
(PID.TID 0000.0001) %MON exf_runoff_del2              =   1.8470023000489E-11
(PID.TID 0000.0001) // =======================================================
(PID.TID 0000.0001) // End MONITOR EXF statistics
(PID.TID 0000.0001) // =======================================================
 SEAICE_LSR: Residual Initial ipass,Uice,Vice=    1  1.39885630E-01  2.02390250E-01
 SEAICE_LSR: Residual FrDrift U_fd,V_fd=  8.25181382E+01  8.84393923E+01
 SEAICE_LSR (ipass=   1) iters,dU,Resid=   272  1.98000993E-04  1.99667926E-03
 SEAICE_LSR (ipass=   1) iters,dV,Resid=   272  5.72074887E-05  4.08851726E-04
 SEAICE_LSR: Residual Initial ipass,Uice,Vice=    2  3.59666882E-01  3.74498278E-01
 SEAICE_LSR: Residual FrDrift U_fd,V_fd=  8.27872209E+01  8.84260761E+01
 SEAICE_LSR (ipass=   2) iters,dU,Resid=   100  1.46061539E-04  9.75086593E-04
 SEAICE_LSR (ipass=   2) iters,dV,Resid=   100  1.99342580E-04  1.08429898E-03
 cg2d: Sum(rhs),rhsMax =   5.81252070508500E+00  4.00469735832531E-01
 cg2d: Sum(rhs),rhsMax =   5.84373040404732E+00  3.93168800672480E-01
(PID.TID 0000.0001)      cg2d_init_res =   2.79491407618767E-01
(PID.TID 0000.0001)      cg2d_iters(min,last) =      -1      93
(PID.TID 0000.0001)      cg2d_last_res =   6.60879459618636E-06
(PID.TID 0000.0001) // =======================================================
(PID.TID 0000.0001) // Begin MONITOR dynamic field statistics
(PID.TID 0000.0001) // =======================================================
(PID.TID 0000.0001) %MON time_tsnumber                =                    76
(PID.TID 0000.0001) %MON time_secondsf                =   2.7360000000000E+05
(PID.TID 0000.0001) %MON dynstat_eta_max              =   1.0894413502712E+00
(PID.TID 0000.0001) %MON dynstat_eta_min              =  -4.0837458238601E+00
(PID.TID 0000.0001) %MON dynstat_eta_mean             =  -2.9576937010652E-03
(PID.TID 0000.0001) %MON dynstat_eta_sd               =   7.3959740984546E-01
(PID.TID 0000.0001) %MON dynstat_eta_del2             =   2.8489360497052E-04
(PID.TID 0000.0001) %MON dynstat_uvel_max             =   8.9268867634810E-01
(PID.TID 0000.0001) %MON dynstat_uvel_min             =  -8.2035193120325E-01
(PID.TID 0000.0001) %MON dynstat_uvel_mean            =   1.4082736349560E-03
(PID.TID 0000.0001) %MON dynstat_uvel_sd              =   2.1404380114424E-02
(PID.TID 0000.0001) %MON dynstat_uvel_del2            =   1.2823770010351E-05
(PID.TID 0000.0001) %MON dynstat_vvel_max             =   1.3789842460908E+00
(PID.TID 0000.0001) %MON dynstat_vvel_min             =  -1.0043380494471E+00
(PID.TID 0000.0001) %MON dynstat_vvel_mean            =   1.1562753830555E-03
(PID.TID 0000.0001) %MON dynstat_vvel_sd              =   2.4212435236122E-02
(PID.TID 0000.0001) %MON dynstat_vvel_del2            =   1.3198918266999E-05
(PID.TID 0000.0001) %MON dynstat_wvel_max             =   5.3501441280899E-04
(PID.TID 0000.0001) %MON dynstat_wvel_min             =  -1.1655909677504E-03
(PID.TID 0000.0001) %MON dynstat_wvel_mean            =   1.7805439915051E-09
(PID.TID 0000.0001) %MON dynstat_wvel_sd              =   2.5247548599246E-05
(PID.TID 0000.0001) %MON dynstat_wvel_del2            =   2.3537280756338E-08
(PID.TID 0000.0001) %MON dynstat_theta_max            =   3.2731203074645E+01
(PID.TID 0000.0001) %MON dynstat_theta_min            =  -2.0416236528329E+00
(PID.TID 0000.0001) %MON dynstat_theta_mean           =   3.5907344116482E+00
(PID.TID 0000.0001) %MON dynstat_theta_sd             =   4.4363061196562E+00
(PID.TID 0000.0001) %MON dynstat_theta_del2           =   1.0515640918187E-04
(PID.TID 0000.0001) %MON dynstat_salt_max             =   4.0711384499968E+01
(PID.TID 0000.0001) %MON dynstat_salt_min             =   1.7553624075133E+01
(PID.TID 0000.0001) %MON dynstat_salt_mean            =   3.4725701813638E+01
(PID.TID 0000.0001) %MON dynstat_salt_sd              =   3.7882636619168E-01
(PID.TID 0000.0001) %MON dynstat_salt_del2            =   2.5477432252536E-05
(PID.TID 0000.0001) %MON dynstat_sst_max              =   3.2731160789987E+01
(PID.TID 0000.0001) %MON dynstat_sst_min              =  -1.9609375590454E+00
(PID.TID 0000.0001) %MON dynstat_sst_mean             =   1.8532702744584E+01
(PID.TID 0000.0001) %MON dynstat_sst_sd               =   1.0048347381910E+01
(PID.TID 0000.0001) %MON dynstat_sst_del2             =   9.0005643340204E-04
(PID.TID 0000.0001) %MON dynstat_sss_max              =   3.9741173121166E+01
(PID.TID 0000.0001) %MON dynstat_sss_min              =   1.7553624075133E+01
(PID.TID 0000.0001) %MON dynstat_sss_mean             =   3.4724412880484E+01
(PID.TID 0000.0001) %MON dynstat_sss_sd               =   1.2170475003588E+00
(PID.TID 0000.0001) %MON dynstat_sss_del2             =   3.8956256847199E-04
(PID.TID 0000.0001) %MON forcing_qnet_max             =   1.0093493344602E+03
(PID.TID 0000.0001) %MON forcing_qnet_min             =  -8.7920752349292E+02
(PID.TID 0000.0001) %MON forcing_qnet_mean            =   1.7972632400353E+00
(PID.TID 0000.0001) %MON forcing_qnet_sd              =   2.6117347284098E+02
(PID.TID 0000.0001) %MON forcing_qnet_del2            =   1.6138681570231E-01
(PID.TID 0000.0001) %MON forcing_qsw_max              =   2.8530655178496E+01
(PID.TID 0000.0001) %MON forcing_qsw_min              =  -9.3241664302353E+02
(PID.TID 0000.0001) %MON forcing_qsw_mean             =  -1.7918024976617E+02
(PID.TID 0000.0001) %MON forcing_qsw_sd               =   2.3220935542615E+02
(PID.TID 0000.0001) %MON forcing_qsw_del2             =   8.6159309648783E-02
(PID.TID 0000.0001) %MON forcing_empmr_max            =   1.5457481153726E-03
(PID.TID 0000.0001) %MON forcing_empmr_min            =  -2.0855653922221E-03
(PID.TID 0000.0001) %MON forcing_empmr_mean           =   4.5150802957796E-06
(PID.TID 0000.0001) %MON forcing_empmr_sd             =   1.1028022052953E-04
(PID.TID 0000.0001) %MON forcing_empmr_del2           =   4.5016388616485E-07
(PID.TID 0000.0001) %MON forcing_fu_max               =   1.2122673988342E+00
(PID.TID 0000.0001) %MON forcing_fu_min               =  -1.8406938091031E+00
(PID.TID 0000.0001) %MON forcing_fu_mean              =   9.4173500660288E-03
(PID.TID 0000.0001) %MON forcing_fu_sd                =   1.1981703131747E-01
(PID.TID 0000.0001) %MON forcing_fu_del2              =   1.0531129210385E-04
(PID.TID 0000.0001) %MON forcing_fv_max               =   1.6096116900444E+00
(PID.TID 0000.0001) %MON forcing_fv_min               =  -1.0980542004108E+00
(PID.TID 0000.0001) %MON forcing_fv_mean              =   1.3148896973033E-03
(PID.TID 0000.0001) %MON forcing_fv_sd                =   1.2850086716219E-01
(PID.TID 0000.0001) %MON forcing_fv_del2              =   1.0584646558302E-04
(PID.TID 0000.0001) %MON trAdv_CFL_u_max              =   5.6474951206050E-02
(PID.TID 0000.0001) %MON trAdv_CFL_v_max              =   5.7205553706773E-02
(PID.TID 0000.0001) %MON trAdv_CFL_w_max              =   1.9819091281343E-01
(PID.TID 0000.0001) %MON advcfl_uvel_max              =   5.3490013104912E-02
(PID.TID 0000.0001) %MON advcfl_vvel_max              =   5.7663323580202E-02
(PID.TID 0000.0001) %MON advcfl_wvel_max              =   1.9921642937535E-01
(PID.TID 0000.0001) %MON advcfl_W_hf_max              =   2.0890936692892E-01
(PID.TID 0000.0001) %MON pe_b_mean                    =   4.2101474730736E-04
(PID.TID 0000.0001) %MON ke_max                       =   9.6076131627322E-01
(PID.TID 0000.0001) %MON ke_mean                      =   5.0520569754824E-04
(PID.TID 0000.0001) %MON ke_vol                       =   1.3349968236992E+18
(PID.TID 0000.0001) %MON vort_r_min                   =  -2.0347672102702E-05
(PID.TID 0000.0001) %MON vort_r_max                   =   2.3026220584540E-05
(PID.TID 0000.0001) %MON vort_a_mean                  =  -1.9727864647440E-05
(PID.TID 0000.0001) %MON vort_a_sd                    =   7.4543233026261E-05
(PID.TID 0000.0001) %MON vort_p_mean                  =  -2.1760542553563E-05
(PID.TID 0000.0001) %MON vort_p_sd                    =   9.7245062881075E-05
(PID.TID 0000.0001) %MON surfExpan_theta_mean         =  -3.2064625002615E-08
(PID.TID 0000.0001) %MON surfExpan_salt_mean          =   1.1803209354055E-08
(PID.TID 0000.0001) // =======================================================
(PID.TID 0000.0001) // End MONITOR dynamic field statistics
(PID.TID 0000.0001) // =======================================================
(PID.TID 0000.0001) // =======================================================
(PID.TID 0000.0001) // Begin MONITOR SEAICE statistics
(PID.TID 0000.0001) // =======================================================
(PID.TID 0000.0001) %MON seaice_tsnumber              =                    76
(PID.TID 0000.0001) %MON seaice_time_sec              =   2.7360000000000E+05
(PID.TID 0000.0001) %MON seaice_uice_max              =   4.0000000000000E-01
(PID.TID 0000.0001) %MON seaice_uice_min              =  -4.0000000000000E-01
(PID.TID 0000.0001) %MON seaice_uice_mean             =   6.2343764800641E-03
(PID.TID 0000.0001) %MON seaice_uice_sd               =   1.9441634305467E-01
(PID.TID 0000.0001) %MON seaice_uice_del2             =   1.8615520200744E-04
(PID.TID 0000.0001) %MON seaice_vice_max              =   4.0000000000000E-01
(PID.TID 0000.0001) %MON seaice_vice_min              =  -4.0000000000000E-01
(PID.TID 0000.0001) %MON seaice_vice_mean             =  -4.0403526183013E-03
(PID.TID 0000.0001) %MON seaice_vice_sd               =   2.0739231572942E-01
(PID.TID 0000.0001) %MON seaice_vice_del2             =   1.9164567601490E-04
(PID.TID 0000.0001) %MON seaice_area_max              =   9.5000000000000E-01
(PID.TID 0000.0001) %MON seaice_area_min              =   0.0000000000000E+00
(PID.TID 0000.0001) %MON seaice_area_mean             =   3.8099638206808E-02
(PID.TID 0000.0001) %MON seaice_area_sd               =   1.7686050149527E-01
(PID.TID 0000.0001) %MON seaice_area_del2             =   2.5748949378369E-04
(PID.TID 0000.0001) %MON seaice_heff_max              =   3.9126337652552E+00
(PID.TID 0000.0001) %MON seaice_heff_min              =   0.0000000000000E+00
(PID.TID 0000.0001) %MON seaice_heff_mean             =   5.3703618500999E-02
(PID.TID 0000.0001) %MON seaice_heff_sd               =   3.0962106496555E-01
(PID.TID 0000.0001) %MON seaice_heff_del2             =   2.9780565991809E-04
(PID.TID 0000.0001) %MON seaice_hsnow_max             =   9.5574223201643E-01
(PID.TID 0000.0001) %MON seaice_hsnow_min             =  -6.7420016478727E-05
(PID.TID 0000.0001) %MON seaice_hsnow_mean            =   5.1914218352020E-03
(PID.TID 0000.0001) %MON seaice_hsnow_sd              =   3.1356048620578E-02
(PID.TID 0000.0001) %MON seaice_hsnow_del2            =   5.1735329143901E-05
(PID.TID 0000.0001) // =======================================================
(PID.TID 0000.0001) // End MONITOR SEAICE statistics
(PID.TID 0000.0001) // =======================================================
(PID.TID 0000.0001) // =======================================================
(PID.TID 0000.0001) // Begin MONITOR EXF statistics
(PID.TID 0000.0001) // =======================================================
(PID.TID 0000.0001) %MON exf_tsnumber                 =                    76
(PID.TID 0000.0001) %MON exf_time_sec                 =   2.7360000000000E+05
(PID.TID 0000.0001) %MON exf_ustress_max              =   1.2185019254684E+00
(PID.TID 0000.0001) %MON exf_ustress_min              =  -1.2730204085375E+00
(PID.TID 0000.0001) %MON exf_ustress_mean             =   9.8087830966723E-03
(PID.TID 0000.0001) %MON exf_ustress_sd               =   1.1430848686640E-01
(PID.TID 0000.0001) %MON exf_ustress_del2             =   9.7698181247788E-05
(PID.TID 0000.0001) %MON exf_vstress_max              =   1.5636460979780E+00
(PID.TID 0000.0001) %MON exf_vstress_min              =  -1.1089864770571E+00
(PID.TID 0000.0001) %MON exf_vstress_mean             =   1.2204357777810E-03
(PID.TID 0000.0001) %MON exf_vstress_sd               =   1.2245558435559E-01
(PID.TID 0000.0001) %MON exf_vstress_del2             =   8.9750906231841E-05
(PID.TID 0000.0001) %MON exf_hflux_max                =   1.4689469896673E+03
(PID.TID 0000.0001) %MON exf_hflux_min                =  -7.5604479904966E+02
(PID.TID 0000.0001) %MON exf_hflux_mean               =   1.2226907343197E+01
(PID.TID 0000.0001) %MON exf_hflux_sd                 =   2.5675765410621E+02
(PID.TID 0000.0001) %MON exf_hflux_del2               =   4.5542935008115E-01
(PID.TID 0000.0001) %MON exf_sflux_max                =   2.6075232492540E-07
(PID.TID 0000.0001) %MON exf_sflux_min                =  -2.0838366213224E-06
(PID.TID 0000.0001) %MON exf_sflux_mean               =   4.5142345278869E-09
(PID.TID 0000.0001) %MON exf_sflux_sd                 =   9.0756962879212E-08
(PID.TID 0000.0001) %MON exf_sflux_del2               =   2.2956458895577E-10
(PID.TID 0000.0001) %MON exf_wspeed_max               =   3.1825704097748E+01
(PID.TID 0000.0001) %MON exf_wspeed_min               =   3.2703215380510E-01
(PID.TID 0000.0001) %MON exf_wspeed_mean              =   7.0103822182829E+00
(PID.TID 0000.0001) %MON exf_wspeed_sd                =   3.1950378028280E+00
(PID.TID 0000.0001) %MON exf_wspeed_del2              =   1.2087698771755E-02
(PID.TID 0000.0001) %MON exf_atemp_max                =   3.0473083120982E+02
(PID.TID 0000.0001) %MON exf_atemp_min                =   2.3035198122660E+02
(PID.TID 0000.0001) %MON exf_atemp_mean               =   2.8910054695360E+02
(PID.TID 0000.0001) %MON exf_atemp_sd                 =   1.2328728936622E+01
(PID.TID 0000.0001) %MON exf_atemp_del2               =   2.6390955695282E-02
(PID.TID 0000.0001) %MON exf_aqh_max                  =   2.2205860354006E-02
(PID.TID 0000.0001) %MON exf_aqh_min                  =   6.6097761494651E-05
(PID.TID 0000.0001) %MON exf_aqh_mean                 =   1.0890834642642E-02
(PID.TID 0000.0001) %MON exf_aqh_sd                   =   5.6450099252794E-03
(PID.TID 0000.0001) %MON exf_aqh_del2                 =   1.4559081656376E-05
(PID.TID 0000.0001) %MON exf_lwflux_max               =   2.0706170646978E+02
(PID.TID 0000.0001) %MON exf_lwflux_min               =  -2.2492298996753E+01
(PID.TID 0000.0001) %MON exf_lwflux_mean              =   4.9292362620598E+01
(PID.TID 0000.0001) %MON exf_lwflux_sd                =   2.9441608563446E+01
(PID.TID 0000.0001) %MON exf_lwflux_del2              =   1.0103888112065E-01
(PID.TID 0000.0001) %MON exf_evap_max                 =   2.7628692370404E-07
(PID.TID 0000.0001) %MON exf_evap_min                 =  -2.1327673275259E-08
(PID.TID 0000.0001) %MON exf_evap_mean                =   4.6785197228677E-08
(PID.TID 0000.0001) %MON exf_evap_sd                  =   3.0488910440249E-08
(PID.TID 0000.0001) %MON exf_evap_del2                =   7.6659252556688E-11
(PID.TID 0000.0001) %MON exf_precip_max               =   1.8056612039648E-06
(PID.TID 0000.0001) %MON exf_precip_min               =  -1.6646484783204E-08
(PID.TID 0000.0001) %MON exf_precip_mean              =   3.9258374508715E-08
(PID.TID 0000.0001) %MON exf_precip_sd                =   8.3271335449899E-08
(PID.TID 0000.0001) %MON exf_precip_del2              =   2.2954713100642E-10
(PID.TID 0000.0001) %MON exf_swflux_max               =   2.6732773977667E+01
(PID.TID 0000.0001) %MON exf_swflux_min               =  -8.1956907628691E+02
(PID.TID 0000.0001) %MON exf_swflux_mean              =  -1.8565147749208E+02
(PID.TID 0000.0001) %MON exf_swflux_sd                =   2.0054657147426E+02
(PID.TID 0000.0001) %MON exf_swflux_del2              =   3.7483062972072E-01
(PID.TID 0000.0001) %MON exf_swdown_max               =   8.8377281697591E+02
(PID.TID 0000.0001) %MON exf_swdown_min               =  -3.4550908406576E+01
(PID.TID 0000.0001) %MON exf_swdown_mean              =   2.0141870626067E+02
(PID.TID 0000.0001) %MON exf_swdown_sd                =   2.1686734890530E+02
(PID.TID 0000.0001) %MON exf_swdown_del2              =   4.0711953363666E-01
(PID.TID 0000.0001) %MON exf_lwdown_max               =   4.6669760640462E+02
(PID.TID 0000.0001) %MON exf_lwdown_min               =   9.3208207448324E+01
(PID.TID 0000.0001) %MON exf_lwdown_mean              =   3.6247698453758E+02
(PID.TID 0000.0001) %MON exf_lwdown_sd                =   6.5940585555247E+01
(PID.TID 0000.0001) %MON exf_lwdown_del2              =   4.8366344362321E-01
(PID.TID 0000.0001) %MON exf_runoff_max               =   2.1411677908550E-06
(PID.TID 0000.0001) %MON exf_runoff_min               =   0.0000000000000E+00
(PID.TID 0000.0001) %MON exf_runoff_mean              =   3.0125881920752E-09
(PID.TID 0000.0001) %MON exf_runoff_sd                =   2.4939799570532E-08
(PID.TID 0000.0001) %MON exf_runoff_del2              =   1.8481211721873E-11
(PID.TID 0000.0001) // =======================================================
(PID.TID 0000.0001) // End MONITOR EXF statistics
(PID.TID 0000.0001) // =======================================================
 SEAICE_LSR: Residual Initial ipass,Uice,Vice=    1  1.41293577E-01  2.08051370E-01
 SEAICE_LSR: Residual FrDrift U_fd,V_fd=  8.73102034E+01  8.89688204E+01
 SEAICE_LSR (ipass=   1) iters,dU,Resid=   302  1.99215288E-04  2.15899844E-03
 SEAICE_LSR (ipass=   1) iters,dV,Resid=   302  4.15690377E-05  3.47035928E-04
 SEAICE_LSR: Residual Initial ipass,Uice,Vice=    2  5.62571916E-01  5.40180644E-01
 SEAICE_LSR: Residual FrDrift U_fd,V_fd=  8.81206915E+01  8.90585660E+01
 SEAICE_LSR (ipass=   2) iters,dU,Resid=    94  1.99978970E-04  1.81997078E-03
 SEAICE_LSR (ipass=   2) iters,dV,Resid=    94  1.94260977E-04  9.56974888E-04
 cg2d: Sum(rhs),rhsMax =   5.87253965417530E+00  3.86218663828113E-01
 cg2d: Sum(rhs),rhsMax =   5.89966755599781E+00  3.80743302493991E-01
(PID.TID 0000.0001)      cg2d_init_res =   2.66903694215692E-01
(PID.TID 0000.0001)      cg2d_iters(min,last) =      -1      92
(PID.TID 0000.0001)      cg2d_last_res =   6.80026535252723E-06
(PID.TID 0000.0001) // =======================================================
(PID.TID 0000.0001) // Begin MONITOR dynamic field statistics
(PID.TID 0000.0001) // =======================================================
(PID.TID 0000.0001) %MON time_tsnumber                =                    78
(PID.TID 0000.0001) %MON time_secondsf                =   2.8080000000000E+05
(PID.TID 0000.0001) %MON dynstat_eta_max              =   1.0890892653075E+00
(PID.TID 0000.0001) %MON dynstat_eta_min              =  -4.0793306113631E+00
(PID.TID 0000.0001) %MON dynstat_eta_mean             =  -2.9860052333470E-03
(PID.TID 0000.0001) %MON dynstat_eta_sd               =   7.3930602665125E-01
(PID.TID 0000.0001) %MON dynstat_eta_del2             =   2.8431507153392E-04
(PID.TID 0000.0001) %MON dynstat_uvel_max             =   8.9970299886360E-01
(PID.TID 0000.0001) %MON dynstat_uvel_min             =  -8.1792608202034E-01
(PID.TID 0000.0001) %MON dynstat_uvel_mean            =   1.4034134232087E-03
(PID.TID 0000.0001) %MON dynstat_uvel_sd              =   2.1385778141343E-02
(PID.TID 0000.0001) %MON dynstat_uvel_del2            =   1.2784921114960E-05
(PID.TID 0000.0001) %MON dynstat_vvel_max             =   1.3833307215278E+00
(PID.TID 0000.0001) %MON dynstat_vvel_min             =  -1.0145830574305E+00
(PID.TID 0000.0001) %MON dynstat_vvel_mean            =   1.1573162510694E-03
(PID.TID 0000.0001) %MON dynstat_vvel_sd              =   2.4241980710785E-02
(PID.TID 0000.0001) %MON dynstat_vvel_del2            =   1.3175251864203E-05
(PID.TID 0000.0001) %MON dynstat_wvel_max             =   5.5155570868271E-04
(PID.TID 0000.0001) %MON dynstat_wvel_min             =  -1.1241172122241E-03
(PID.TID 0000.0001) %MON dynstat_wvel_mean            =   1.6484201332191E-09
(PID.TID 0000.0001) %MON dynstat_wvel_sd              =   2.5299668414648E-05
(PID.TID 0000.0001) %MON dynstat_wvel_del2            =   2.3345387836165E-08
(PID.TID 0000.0001) %MON dynstat_theta_max            =   3.2707555742340E+01
(PID.TID 0000.0001) %MON dynstat_theta_min            =  -2.0416203867168E+00
(PID.TID 0000.0001) %MON dynstat_theta_mean           =   3.5907373128959E+00
(PID.TID 0000.0001) %MON dynstat_theta_sd             =   4.4362797683547E+00
(PID.TID 0000.0001) %MON dynstat_theta_del2           =   1.0515317863015E-04
(PID.TID 0000.0001) %MON dynstat_salt_max             =   4.0711384071526E+01
(PID.TID 0000.0001) %MON dynstat_salt_min             =   1.7557353975546E+01
(PID.TID 0000.0001) %MON dynstat_salt_mean            =   3.4725702073134E+01
(PID.TID 0000.0001) %MON dynstat_salt_sd              =   3.7882409591783E-01
(PID.TID 0000.0001) %MON dynstat_salt_del2            =   2.5463680001325E-05
(PID.TID 0000.0001) %MON dynstat_sst_max              =   3.2707519491244E+01
(PID.TID 0000.0001) %MON dynstat_sst_min              =  -1.9609175824850E+00
(PID.TID 0000.0001) %MON dynstat_sst_mean             =   1.8533188676975E+01
(PID.TID 0000.0001) %MON dynstat_sst_sd               =   1.0045746740775E+01
(PID.TID 0000.0001) %MON dynstat_sst_del2             =   9.0201403429746E-04
(PID.TID 0000.0001) %MON dynstat_sss_max              =   3.9742568147392E+01
(PID.TID 0000.0001) %MON dynstat_sss_min              =   1.7557353975546E+01
(PID.TID 0000.0001) %MON dynstat_sss_mean             =   3.4724584604041E+01
(PID.TID 0000.0001) %MON dynstat_sss_sd               =   1.2168551605323E+00
(PID.TID 0000.0001) %MON dynstat_sss_del2             =   3.8947298681682E-04
(PID.TID 0000.0001) %MON forcing_qnet_max             =   9.5480870477590E+02
(PID.TID 0000.0001) %MON forcing_qnet_min             =  -6.5210722255555E+02
(PID.TID 0000.0001) %MON forcing_qnet_mean            =  -8.9894767435622E+00
(PID.TID 0000.0001) %MON forcing_qnet_sd              =   2.1500900221219E+02
(PID.TID 0000.0001) %MON forcing_qnet_del2            =   1.5164777887606E-01
(PID.TID 0000.0001) %MON forcing_qsw_max              =   2.5743680685929E+01
(PID.TID 0000.0001) %MON forcing_qsw_min              =  -7.4412749027229E+02
(PID.TID 0000.0001) %MON forcing_qsw_mean             =  -1.8939166805621E+02
(PID.TID 0000.0001) %MON forcing_qsw_sd               =   1.7997191486121E+02
(PID.TID 0000.0001) %MON forcing_qsw_del2             =   7.4774661760869E-02
(PID.TID 0000.0001) %MON forcing_empmr_max            =   1.5768745160864E-03
(PID.TID 0000.0001) %MON forcing_empmr_min            =  -2.0838928907352E-03
(PID.TID 0000.0001) %MON forcing_empmr_mean           =   3.9245702156112E-06
(PID.TID 0000.0001) %MON forcing_empmr_sd             =   1.0483012835802E-04
(PID.TID 0000.0001) %MON forcing_empmr_del2           =   4.3528452902956E-07
(PID.TID 0000.0001) %MON forcing_fu_max               =   1.2394604881605E+00
(PID.TID 0000.0001) %MON forcing_fu_min               =  -1.7534457426717E+00
(PID.TID 0000.0001) %MON forcing_fu_mean              =   8.8574659049188E-03
(PID.TID 0000.0001) %MON forcing_fu_sd                =   1.1674500149093E-01
(PID.TID 0000.0001) %MON forcing_fu_del2              =   9.6215531039847E-05
(PID.TID 0000.0001) %MON forcing_fv_max               =   1.5000247955322E+00
(PID.TID 0000.0001) %MON forcing_fv_min               =  -1.0129679441452E+00
(PID.TID 0000.0001) %MON forcing_fv_mean              =   1.3606276379612E-03
(PID.TID 0000.0001) %MON forcing_fv_sd                =   1.2616055895768E-01
(PID.TID 0000.0001) %MON forcing_fv_del2              =   9.6700195594491E-05
(PID.TID 0000.0001) %MON trAdv_CFL_u_max              =   5.6881519227699E-02
(PID.TID 0000.0001) %MON trAdv_CFL_v_max              =   5.9217494049925E-02
(PID.TID 0000.0001) %MON trAdv_CFL_w_max              =   1.9396730328092E-01
(PID.TID 0000.0001) %MON advcfl_uvel_max              =   5.3910312155653E-02
(PID.TID 0000.0001) %MON advcfl_vvel_max              =   5.9655447964815E-02
(PID.TID 0000.0001) %MON advcfl_wvel_max              =   1.9518705305540E-01
(PID.TID 0000.0001) %MON advcfl_W_hf_max              =   2.0468585782243E-01
(PID.TID 0000.0001) %MON pe_b_mean                    =   4.2057744740115E-04
(PID.TID 0000.0001) %MON ke_max                       =   9.6726959615305E-01
(PID.TID 0000.0001) %MON ke_mean                      =   5.0550695062960E-04
(PID.TID 0000.0001) %MON ke_vol                       =   1.3349968128237E+18
(PID.TID 0000.0001) %MON vort_r_min                   =  -1.9601980429538E-05
(PID.TID 0000.0001) %MON vort_r_max                   =   2.3583286411019E-05
(PID.TID 0000.0001) %MON vort_a_mean                  =  -1.9727864647440E-05
(PID.TID 0000.0001) %MON vort_a_sd                    =   7.4543230260463E-05
(PID.TID 0000.0001) %MON vort_p_mean                  =  -2.1760542743114E-05
(PID.TID 0000.0001) %MON vort_p_sd                    =   9.7245115282253E-05
(PID.TID 0000.0001) %MON surfExpan_theta_mean         =  -4.6004982574115E-08
(PID.TID 0000.0001) %MON surfExpan_salt_mean          =   8.3345159817422E-09
(PID.TID 0000.0001) // =======================================================
(PID.TID 0000.0001) // End MONITOR dynamic field statistics
(PID.TID 0000.0001) // =======================================================
(PID.TID 0000.0001) // =======================================================
(PID.TID 0000.0001) // Begin MONITOR SEAICE statistics
(PID.TID 0000.0001) // =======================================================
(PID.TID 0000.0001) %MON seaice_tsnumber              =                    78
(PID.TID 0000.0001) %MON seaice_time_sec              =   2.8080000000000E+05
(PID.TID 0000.0001) %MON seaice_uice_max              =   4.0000000000000E-01
(PID.TID 0000.0001) %MON seaice_uice_min              =  -4.0000000000000E-01
(PID.TID 0000.0001) %MON seaice_uice_mean             =   5.9192776053958E-03
(PID.TID 0000.0001) %MON seaice_uice_sd               =   1.9386828873776E-01
(PID.TID 0000.0001) %MON seaice_uice_del2             =   1.8350137091608E-04
(PID.TID 0000.0001) %MON seaice_vice_max              =   4.0000000000000E-01
(PID.TID 0000.0001) %MON seaice_vice_min              =  -4.0000000000000E-01
(PID.TID 0000.0001) %MON seaice_vice_mean             =  -4.0590215523622E-03
(PID.TID 0000.0001) %MON seaice_vice_sd               =   2.0754278652218E-01
(PID.TID 0000.0001) %MON seaice_vice_del2             =   1.8910742764342E-04
(PID.TID 0000.0001) %MON seaice_area_max              =   9.5000000000000E-01
(PID.TID 0000.0001) %MON seaice_area_min              =   0.0000000000000E+00
(PID.TID 0000.0001) %MON seaice_area_mean             =   3.8080728158687E-02
(PID.TID 0000.0001) %MON seaice_area_sd               =   1.7681193934637E-01
(PID.TID 0000.0001) %MON seaice_area_del2             =   2.5619694869168E-04
(PID.TID 0000.0001) %MON seaice_heff_max              =   3.9022331519189E+00
(PID.TID 0000.0001) %MON seaice_heff_min              =   0.0000000000000E+00
(PID.TID 0000.0001) %MON seaice_heff_mean             =   5.3711941462782E-02
(PID.TID 0000.0001) %MON seaice_heff_sd               =   3.0974460176070E-01
(PID.TID 0000.0001) %MON seaice_heff_del2             =   2.9743991516723E-04
(PID.TID 0000.0001) %MON seaice_hsnow_max             =   9.5499511146616E-01
(PID.TID 0000.0001) %MON seaice_hsnow_min             =  -5.3655804082615E-05
(PID.TID 0000.0001) %MON seaice_hsnow_mean            =   5.1904086519006E-03
(PID.TID 0000.0001) %MON seaice_hsnow_sd              =   3.1345462226464E-02
(PID.TID 0000.0001) %MON seaice_hsnow_del2            =   5.1306437574536E-05
(PID.TID 0000.0001) // =======================================================
(PID.TID 0000.0001) // End MONITOR SEAICE statistics
(PID.TID 0000.0001) // =======================================================
(PID.TID 0000.0001) // =======================================================
(PID.TID 0000.0001) // Begin MONITOR EXF statistics
(PID.TID 0000.0001) // =======================================================
(PID.TID 0000.0001) %MON exf_tsnumber                 =                    78
(PID.TID 0000.0001) %MON exf_time_sec                 =   2.8080000000000E+05
(PID.TID 0000.0001) %MON exf_ustress_max              =   1.3043278455734E+00
(PID.TID 0000.0001) %MON exf_ustress_min              =  -1.1955230811843E+00
(PID.TID 0000.0001) %MON exf_ustress_mean             =   9.2914960718197E-03
(PID.TID 0000.0001) %MON exf_ustress_sd               =   1.1339831955739E-01
(PID.TID 0000.0001) %MON exf_ustress_del2             =   9.4903478001746E-05
(PID.TID 0000.0001) %MON exf_vstress_max              =   1.5090503096581E+00
(PID.TID 0000.0001) %MON exf_vstress_min              =  -1.0069839358330E+00
(PID.TID 0000.0001) %MON exf_vstress_mean             =   1.2976663526368E-03
(PID.TID 0000.0001) %MON exf_vstress_sd               =   1.2189169205407E-01
(PID.TID 0000.0001) %MON exf_vstress_del2             =   8.5216292762598E-05
(PID.TID 0000.0001) %MON exf_hflux_max                =   1.1535272142592E+03
(PID.TID 0000.0001) %MON exf_hflux_min                =  -5.8312718643684E+02
(PID.TID 0000.0001) %MON exf_hflux_mean               =   1.3560798817407E+00
(PID.TID 0000.0001) %MON exf_hflux_sd                 =   2.3844466894537E+02
(PID.TID 0000.0001) %MON exf_hflux_del2               =   4.3800688569625E-01
(PID.TID 0000.0001) %MON exf_sflux_max                =   2.6586413391969E-07
(PID.TID 0000.0001) %MON exf_sflux_min                =  -2.0840594651073E-06
(PID.TID 0000.0001) %MON exf_sflux_mean               =   4.0748284625528E-09
(PID.TID 0000.0001) %MON exf_sflux_sd                 =   8.8854647020959E-08
(PID.TID 0000.0001) %MON exf_sflux_del2               =   2.1305933998725E-10
(PID.TID 0000.0001) %MON exf_wspeed_max               =   2.5216048240662E+01
(PID.TID 0000.0001) %MON exf_wspeed_min               =   4.1403801739216E-01
(PID.TID 0000.0001) %MON exf_wspeed_mean              =   7.0006340776991E+00
(PID.TID 0000.0001) %MON exf_wspeed_sd                =   3.1314003645324E+00
(PID.TID 0000.0001) %MON exf_wspeed_del2              =   1.1905242924445E-02
(PID.TID 0000.0001) %MON exf_atemp_max                =   3.0386368026733E+02
(PID.TID 0000.0001) %MON exf_atemp_min                =   2.3039382972717E+02
(PID.TID 0000.0001) %MON exf_atemp_mean               =   2.8910869675135E+02
(PID.TID 0000.0001) %MON exf_atemp_sd                 =   1.2317627348807E+01
(PID.TID 0000.0001) %MON exf_atemp_del2               =   2.6370670781437E-02
(PID.TID 0000.0001) %MON exf_aqh_max                  =   2.1635103039443E-02
(PID.TID 0000.0001) %MON exf_aqh_min                  =   7.1220401878236E-05
(PID.TID 0000.0001) %MON exf_aqh_mean                 =   1.0889815611548E-02
(PID.TID 0000.0001) %MON exf_aqh_sd                   =   5.6366753958504E-03
(PID.TID 0000.0001) %MON exf_aqh_del2                 =   1.4521155121005E-05
(PID.TID 0000.0001) %MON exf_lwflux_max               =   2.0741295767933E+02
(PID.TID 0000.0001) %MON exf_lwflux_min               =  -2.2725665938299E+01
(PID.TID 0000.0001) %MON exf_lwflux_mean              =   4.9140329486449E+01
(PID.TID 0000.0001) %MON exf_lwflux_sd                =   2.9008007216997E+01
(PID.TID 0000.0001) %MON exf_lwflux_del2              =   9.9819299696360E-02
(PID.TID 0000.0001) %MON exf_evap_max                 =   2.8327905697887E-07
(PID.TID 0000.0001) %MON exf_evap_min                 =  -1.7993842290313E-08
(PID.TID 0000.0001) %MON exf_evap_mean                =   4.6660386702450E-08
(PID.TID 0000.0001) %MON exf_evap_sd                  =   3.0079975602532E-08
(PID.TID 0000.0001) %MON exf_evap_del2                =   7.5435561662823E-11
(PID.TID 0000.0001) %MON exf_precip_max               =   1.6719378095331E-06
(PID.TID 0000.0001) %MON exf_precip_min               =  -1.6722590423512E-08
(PID.TID 0000.0001) %MON exf_precip_mean              =   3.9573874473448E-08
(PID.TID 0000.0001) %MON exf_precip_sd                =   8.1015743400063E-08
(PID.TID 0000.0001) %MON exf_precip_del2              =   2.1432018170479E-10
(PID.TID 0000.0001) %MON exf_swflux_max               =   2.5818257847561E+01
(PID.TID 0000.0001) %MON exf_swflux_min               =  -6.9590580582709E+02
(PID.TID 0000.0001) %MON exf_swflux_mean              =  -1.9593797778558E+02
(PID.TID 0000.0001) %MON exf_swflux_sd                =   1.7594803220078E+02
(PID.TID 0000.0001) %MON exf_swflux_del2              =   3.7020381246192E-01
(PID.TID 0000.0001) %MON exf_swdown_max               =   7.5096084594727E+02
(PID.TID 0000.0001) %MON exf_swdown_min               =  -3.4624534606934E+01
(PID.TID 0000.0001) %MON exf_swdown_mean              =   2.1255142505920E+02
(PID.TID 0000.0001) %MON exf_swdown_sd                =   1.9002642299854E+02
(PID.TID 0000.0001) %MON exf_swdown_del2              =   4.0201340335016E-01
(PID.TID 0000.0001) %MON exf_lwdown_max               =   4.6469865417480E+02
(PID.TID 0000.0001) %MON exf_lwdown_min               =   9.2845863342285E+01
(PID.TID 0000.0001) %MON exf_lwdown_mean              =   3.6263494231138E+02
(PID.TID 0000.0001) %MON exf_lwdown_sd                =   6.5646150068606E+01
(PID.TID 0000.0001) %MON exf_lwdown_del2              =   4.8404462834257E-01
(PID.TID 0000.0001) %MON exf_runoff_max               =   2.1443219496529E-06
(PID.TID 0000.0001) %MON exf_runoff_min               =   0.0000000000000E+00
(PID.TID 0000.0001) %MON exf_runoff_mean              =   3.0116837664489E-09
(PID.TID 0000.0001) %MON exf_runoff_sd                =   2.4969635957132E-08
(PID.TID 0000.0001) %MON exf_runoff_del2              =   1.8492424154656E-11
(PID.TID 0000.0001) // =======================================================
(PID.TID 0000.0001) // End MONITOR EXF statistics
(PID.TID 0000.0001) // =======================================================
 SEAICE_LSR: Residual Initial ipass,Uice,Vice=    1  1.37491215E-01  2.08388163E-01
 SEAICE_LSR: Residual FrDrift U_fd,V_fd=  9.15387925E+01  8.98221614E+01
 SEAICE_LSR (ipass=   1) iters,dU,Resid=   426  1.99353855E-04  3.74923261E-03
 SEAICE_LSR (ipass=   1) iters,dV,Resid=   426  1.62021150E-05  3.87095076E-04
 SEAICE_LSR: Residual Initial ipass,Uice,Vice=    2  5.54764984E-01  3.91977288E-01
 SEAICE_LSR: Residual FrDrift U_fd,V_fd=  9.15988762E+01  8.98689478E+01
 SEAICE_LSR (ipass=   2) iters,dU,Resid=   124  1.99501599E-04  3.14109259E-03
 SEAICE_LSR (ipass=   2) iters,dV,Resid=   124  7.50604794E-05  9.75193924E-04
 cg2d: Sum(rhs),rhsMax =   5.92535591908865E+00  3.76514956160070E-01
 cg2d: Sum(rhs),rhsMax =   5.94957299877740E+00  3.72975253344097E-01
(PID.TID 0000.0001)      cg2d_init_res =   2.57781334694228E-01
(PID.TID 0000.0001)      cg2d_iters(min,last) =      -1      91
(PID.TID 0000.0001)      cg2d_last_res =   6.98063998136260E-06
(PID.TID 0000.0001) // =======================================================
(PID.TID 0000.0001) // Begin MONITOR dynamic field statistics
(PID.TID 0000.0001) // =======================================================
(PID.TID 0000.0001) %MON time_tsnumber                =                    80
(PID.TID 0000.0001) %MON time_secondsf                =   2.8800000000000E+05
(PID.TID 0000.0001) %MON dynstat_eta_max              =   1.0884215117691E+00
(PID.TID 0000.0001) %MON dynstat_eta_min              =  -4.0723874888247E+00
(PID.TID 0000.0001) %MON dynstat_eta_mean             =  -3.0112639300275E-03
(PID.TID 0000.0001) %MON dynstat_eta_sd               =   7.3903445648650E-01
(PID.TID 0000.0001) %MON dynstat_eta_del2             =   2.8378410807278E-04
(PID.TID 0000.0001) %MON dynstat_uvel_max             =   9.1205364178151E-01
(PID.TID 0000.0001) %MON dynstat_uvel_min             =  -8.2930397315679E-01
(PID.TID 0000.0001) %MON dynstat_uvel_mean            =   1.3997050390144E-03
(PID.TID 0000.0001) %MON dynstat_uvel_sd              =   2.1364520151878E-02
(PID.TID 0000.0001) %MON dynstat_uvel_del2            =   1.2741590134808E-05
(PID.TID 0000.0001) %MON dynstat_vvel_max             =   1.3896477278759E+00
(PID.TID 0000.0001) %MON dynstat_vvel_min             =  -1.0274365361203E+00
(PID.TID 0000.0001) %MON dynstat_vvel_mean            =   1.1593622294929E-03
(PID.TID 0000.0001) %MON dynstat_vvel_sd              =   2.4272471581536E-02
(PID.TID 0000.0001) %MON dynstat_vvel_del2            =   1.3157798827644E-05
(PID.TID 0000.0001) %MON dynstat_wvel_max             =   5.7023828858031E-04
(PID.TID 0000.0001) %MON dynstat_wvel_min             =  -1.0914620568993E-03
(PID.TID 0000.0001) %MON dynstat_wvel_mean            =   1.0073204486049E-09
(PID.TID 0000.0001) %MON dynstat_wvel_sd              =   2.5334827504943E-05
(PID.TID 0000.0001) %MON dynstat_wvel_del2            =   2.3195023990799E-08
(PID.TID 0000.0001) %MON dynstat_theta_max            =   3.2690615965443E+01
(PID.TID 0000.0001) %MON dynstat_theta_min            =  -2.0416180738490E+00
(PID.TID 0000.0001) %MON dynstat_theta_mean           =   3.5907452664796E+00
(PID.TID 0000.0001) %MON dynstat_theta_sd             =   4.4362833733286E+00
(PID.TID 0000.0001) %MON dynstat_theta_del2           =   1.0515069396585E-04
(PID.TID 0000.0001) %MON dynstat_salt_max             =   4.0711383868252E+01
(PID.TID 0000.0001) %MON dynstat_salt_min             =   1.7560529379659E+01
(PID.TID 0000.0001) %MON dynstat_salt_mean            =   3.4725702303152E+01
(PID.TID 0000.0001) %MON dynstat_salt_sd              =   3.7882190146103E-01
(PID.TID 0000.0001) %MON dynstat_salt_del2            =   2.5453079213362E-05
(PID.TID 0000.0001) %MON dynstat_sst_max              =   3.2690585679426E+01
(PID.TID 0000.0001) %MON dynstat_sst_min              =  -1.9608961249519E+00
(PID.TID 0000.0001) %MON dynstat_sst_mean             =   1.8534180956127E+01
(PID.TID 0000.0001) %MON dynstat_sst_sd               =   1.0044256155010E+01
(PID.TID 0000.0001) %MON dynstat_sst_del2             =   9.0347389444856E-04
(PID.TID 0000.0001) %MON dynstat_sss_max              =   3.9743875106309E+01
(PID.TID 0000.0001) %MON dynstat_sss_min              =   1.7560529379659E+01
(PID.TID 0000.0001) %MON dynstat_sss_mean             =   3.4724698529306E+01
(PID.TID 0000.0001) %MON dynstat_sss_sd               =   1.2166886531643E+00
(PID.TID 0000.0001) %MON dynstat_sss_del2             =   3.8938685674492E-04
(PID.TID 0000.0001) %MON forcing_qnet_max             =   9.0937082097384E+02
(PID.TID 0000.0001) %MON forcing_qnet_min             =  -6.0630491478043E+02
(PID.TID 0000.0001) %MON forcing_qnet_mean            =  -1.9670333302562E+01
(PID.TID 0000.0001) %MON forcing_qnet_sd              =   2.2270008385371E+02
(PID.TID 0000.0001) %MON forcing_qnet_del2            =   1.5281751007519E-01
(PID.TID 0000.0001) %MON forcing_qsw_max              =   2.5892835572345E+01
(PID.TID 0000.0001) %MON forcing_qsw_min              =  -7.1179319294444E+02
(PID.TID 0000.0001) %MON forcing_qsw_mean             =  -1.9960165400283E+02
(PID.TID 0000.0001) %MON forcing_qsw_sd               =   1.8879860220441E+02
(PID.TID 0000.0001) %MON forcing_qsw_del2             =   7.8214778746033E-02
(PID.TID 0000.0001) %MON forcing_empmr_max            =   1.6772653292562E-03
(PID.TID 0000.0001) %MON forcing_empmr_min            =  -2.0843298808449E-03
(PID.TID 0000.0001) %MON forcing_empmr_mean           =   3.5034640820101E-06
(PID.TID 0000.0001) %MON forcing_empmr_sd             =   1.0640763541970E-04
(PID.TID 0000.0001) %MON forcing_empmr_del2           =   4.3461412260295E-07
(PID.TID 0000.0001) %MON forcing_fu_max               =   1.3373260299365E+00
(PID.TID 0000.0001) %MON forcing_fu_min               =  -1.6711436240453E+00
(PID.TID 0000.0001) %MON forcing_fu_mean              =   8.3067249842554E-03
(PID.TID 0000.0001) %MON forcing_fu_sd                =   1.1807404245777E-01
(PID.TID 0000.0001) %MON forcing_fu_del2              =   9.8701371883801E-05
(PID.TID 0000.0001) %MON forcing_fv_max               =   1.5334814786911E+00
(PID.TID 0000.0001) %MON forcing_fv_min               =  -9.8012888431549E-01
(PID.TID 0000.0001) %MON forcing_fv_mean              =   1.3970546470182E-03
(PID.TID 0000.0001) %MON forcing_fv_sd                =   1.2755576812576E-01
(PID.TID 0000.0001) %MON forcing_fv_del2              =   9.8581579645819E-05
(PID.TID 0000.0001) %MON trAdv_CFL_u_max              =   5.7624096635733E-02
(PID.TID 0000.0001) %MON trAdv_CFL_v_max              =   6.1048484869352E-02
(PID.TID 0000.0001) %MON trAdv_CFL_w_max              =   1.9039202394778E-01
(PID.TID 0000.0001) %MON advcfl_uvel_max              =   5.4650364168226E-02
(PID.TID 0000.0001) %MON advcfl_vvel_max              =   6.1458200884181E-02
(PID.TID 0000.0001) %MON advcfl_wvel_max              =   1.9177626709491E-01
(PID.TID 0000.0001) %MON advcfl_W_hf_max              =   2.0111066254151E-01
(PID.TID 0000.0001) %MON pe_b_mean                    =   4.2016835299863E-04
(PID.TID 0000.0001) %MON ke_max                       =   9.7602575161969E-01
(PID.TID 0000.0001) %MON ke_mean                      =   5.0577949676881E-04
(PID.TID 0000.0001) %MON ke_vol                       =   1.3349968032532E+18
(PID.TID 0000.0001) %MON vort_r_min                   =  -1.8742311879922E-05
(PID.TID 0000.0001) %MON vort_r_max                   =   2.4417412915321E-05
(PID.TID 0000.0001) %MON vort_a_mean                  =  -1.9727864647440E-05
(PID.TID 0000.0001) %MON vort_a_sd                    =   7.4543227780485E-05
(PID.TID 0000.0001) %MON vort_p_mean                  =  -2.1760542900368E-05
(PID.TID 0000.0001) %MON vort_p_sd                    =   9.7245210261582E-05
(PID.TID 0000.0001) %MON surfExpan_theta_mean         =  -7.4853564834298E-08
(PID.TID 0000.0001) %MON surfExpan_salt_mean          =   5.8441388238488E-09
(PID.TID 0000.0001) // =======================================================
(PID.TID 0000.0001) // End MONITOR dynamic field statistics
(PID.TID 0000.0001) // =======================================================
(PID.TID 0000.0001) // =======================================================
(PID.TID 0000.0001) // Begin MONITOR SEAICE statistics
(PID.TID 0000.0001) // =======================================================
(PID.TID 0000.0001) %MON seaice_tsnumber              =                    80
(PID.TID 0000.0001) %MON seaice_time_sec              =   2.8800000000000E+05
(PID.TID 0000.0001) %MON seaice_uice_max              =   4.0000000000000E-01
(PID.TID 0000.0001) %MON seaice_uice_min              =  -4.0000000000000E-01
(PID.TID 0000.0001) %MON seaice_uice_mean             =   5.6058264539295E-03
(PID.TID 0000.0001) %MON seaice_uice_sd               =   1.9346236585209E-01
(PID.TID 0000.0001) %MON seaice_uice_del2             =   1.8350231391620E-04
(PID.TID 0000.0001) %MON seaice_vice_max              =   4.0000000000000E-01
(PID.TID 0000.0001) %MON seaice_vice_min              =  -4.0000000000000E-01
(PID.TID 0000.0001) %MON seaice_vice_mean             =  -3.9411387480812E-03
(PID.TID 0000.0001) %MON seaice_vice_sd               =   2.0732110163241E-01
(PID.TID 0000.0001) %MON seaice_vice_del2             =   1.8818440199984E-04
(PID.TID 0000.0001) %MON seaice_area_max              =   9.5000000000000E-01
(PID.TID 0000.0001) %MON seaice_area_min              =   0.0000000000000E+00
(PID.TID 0000.0001) %MON seaice_area_mean             =   3.8061345563502E-02
(PID.TID 0000.0001) %MON seaice_area_sd               =   1.7676280923475E-01
(PID.TID 0000.0001) %MON seaice_area_del2             =   2.5516593132206E-04
(PID.TID 0000.0001) %MON seaice_heff_max              =   3.8886596390460E+00
(PID.TID 0000.0001) %MON seaice_heff_min              =   0.0000000000000E+00
(PID.TID 0000.0001) %MON seaice_heff_mean             =   5.3720211423317E-02
(PID.TID 0000.0001) %MON seaice_heff_sd               =   3.0986956660712E-01
(PID.TID 0000.0001) %MON seaice_heff_del2             =   2.9708838286090E-04
(PID.TID 0000.0001) %MON seaice_hsnow_max             =   9.5424952409434E-01
(PID.TID 0000.0001) %MON seaice_hsnow_min             =  -3.9891591686502E-05
(PID.TID 0000.0001) %MON seaice_hsnow_mean            =   5.1894549354469E-03
(PID.TID 0000.0001) %MON seaice_hsnow_sd              =   3.1335684431854E-02
(PID.TID 0000.0001) %MON seaice_hsnow_del2            =   5.0970458913893E-05
(PID.TID 0000.0001) // =======================================================
(PID.TID 0000.0001) // End MONITOR SEAICE statistics
(PID.TID 0000.0001) // =======================================================
(PID.TID 0000.0001) // =======================================================
(PID.TID 0000.0001) // Begin MONITOR EXF statistics
(PID.TID 0000.0001) // =======================================================
(PID.TID 0000.0001) %MON exf_tsnumber                 =                    80
(PID.TID 0000.0001) %MON exf_time_sec                 =   2.8800000000000E+05
(PID.TID 0000.0001) %MON exf_ustress_max              =   1.3901537656784E+00
(PID.TID 0000.0001) %MON exf_ustress_min              =  -1.1344290876869E+00
(PID.TID 0000.0001) %MON exf_ustress_mean             =   8.7742090469672E-03
(PID.TID 0000.0001) %MON exf_ustress_sd               =   1.1704249227381E-01
(PID.TID 0000.0001) %MON exf_ustress_del2             =   1.0646859794671E-04
(PID.TID 0000.0001) %MON exf_vstress_max              =   1.6099944710731E+00
(PID.TID 0000.0001) %MON exf_vstress_min              =  -1.0213917295138E+00
(PID.TID 0000.0001) %MON exf_vstress_mean             =   1.3748969274926E-03
(PID.TID 0000.0001) %MON exf_vstress_sd               =   1.2521797296891E-01
(PID.TID 0000.0001) %MON exf_vstress_del2             =   9.5144449971750E-05
(PID.TID 0000.0001) %MON exf_hflux_max                =   1.2039513082906E+03
(PID.TID 0000.0001) %MON exf_hflux_min                =  -6.8383386858553E+02
(PID.TID 0000.0001) %MON exf_hflux_mean               =  -9.3338992875652E+00
(PID.TID 0000.0001) %MON exf_hflux_sd                 =   2.7053053623528E+02
(PID.TID 0000.0001) %MON exf_hflux_del2               =   4.7460047409328E-01
(PID.TID 0000.0001) %MON exf_sflux_max                =   2.7581072374248E-07
(PID.TID 0000.0001) %MON exf_sflux_min                =  -2.0846980182781E-06
(PID.TID 0000.0001) %MON exf_sflux_mean               =   3.6524780733004E-09
(PID.TID 0000.0001) %MON exf_sflux_sd                 =   9.5292653234623E-08
(PID.TID 0000.0001) %MON exf_sflux_del2               =   2.5032092974090E-10
(PID.TID 0000.0001) %MON exf_wspeed_max               =   2.6972335179647E+01
(PID.TID 0000.0001) %MON exf_wspeed_min               =   2.8700836251179E-01
(PID.TID 0000.0001) %MON exf_wspeed_mean              =   6.9908859371154E+00
(PID.TID 0000.0001) %MON exf_wspeed_sd                =   3.1913491695415E+00
(PID.TID 0000.0001) %MON exf_wspeed_del2              =   1.1979491747232E-02
(PID.TID 0000.0001) %MON exf_atemp_max                =   3.0506976801554E+02
(PID.TID 0000.0001) %MON exf_atemp_min                =   2.3043567822774E+02
(PID.TID 0000.0001) %MON exf_atemp_mean               =   2.8911684654909E+02
(PID.TID 0000.0001) %MON exf_atemp_sd                 =   1.2314679563820E+01
(PID.TID 0000.0001) %MON exf_atemp_del2               =   2.6371590795100E-02
(PID.TID 0000.0001) %MON exf_aqh_max                  =   2.1933319047093E-02
(PID.TID 0000.0001) %MON exf_aqh_min                  =   7.6343042261821E-05
(PID.TID 0000.0001) %MON exf_aqh_mean                 =   1.0888796580453E-02
(PID.TID 0000.0001) %MON exf_aqh_sd                   =   5.6370890867629E-03
(PID.TID 0000.0001) %MON exf_aqh_del2                 =   1.4510440445262E-05
(PID.TID 0000.0001) %MON exf_lwflux_max               =   2.0996518606118E+02
(PID.TID 0000.0001) %MON exf_lwflux_min               =  -2.4515601224876E+01
(PID.TID 0000.0001) %MON exf_lwflux_mean              =   4.8991687261672E+01
(PID.TID 0000.0001) %MON exf_lwflux_sd                =   2.9185627601125E+01
(PID.TID 0000.0001) %MON exf_lwflux_del2              =   9.9761373778964E-02
(PID.TID 0000.0001) %MON exf_evap_max                 =   2.9037029003582E-07
(PID.TID 0000.0001) %MON exf_evap_min                 =  -2.1016304068277E-08
(PID.TID 0000.0001) %MON exf_evap_mean                =   4.6552631852304E-08
(PID.TID 0000.0001) %MON exf_evap_sd                  =   3.0435731014826E-08
(PID.TID 0000.0001) %MON exf_evap_del2                =   7.6383714088987E-11
(PID.TID 0000.0001) %MON exf_precip_max               =   1.9185458957812E-06
(PID.TID 0000.0001) %MON exf_precip_min               =  -1.6798696063821E-08
(PID.TID 0000.0001) %MON exf_precip_mean              =   3.9889374438181E-08
(PID.TID 0000.0001) %MON exf_precip_sd                =   8.7454038103026E-08
(PID.TID 0000.0001) %MON exf_precip_del2              =   2.5118796571057E-10
(PID.TID 0000.0001) %MON exf_swflux_max               =   2.5967413860282E+01
(PID.TID 0000.0001) %MON exf_swflux_min               =  -8.1748195174195E+02
(PID.TID 0000.0001) %MON exf_swflux_mean              =  -2.0622452862016E+02
(PID.TID 0000.0001) %MON exf_swflux_sd                =   2.1592597941525E+02
(PID.TID 0000.0001) %MON exf_swflux_del2              =   4.2273365460554E-01
(PID.TID 0000.0001) %MON exf_swdown_max               =   8.8165177408854E+02
(PID.TID 0000.0001) %MON exf_swdown_min               =  -3.4796622594198E+01
(PID.TID 0000.0001) %MON exf_swdown_mean              =   2.2368414385773E+02
(PID.TID 0000.0001) %MON exf_swdown_sd                =   2.3329588227750E+02
(PID.TID 0000.0001) %MON exf_swdown_del2              =   4.5886139187575E-01
(PID.TID 0000.0001) %MON exf_lwdown_max               =   4.6563664754232E+02
(PID.TID 0000.0001) %MON exf_lwdown_min               =   9.0214714050293E+01
(PID.TID 0000.0001) %MON exf_lwdown_mean              =   3.6279290008518E+02
(PID.TID 0000.0001) %MON exf_lwdown_sd                =   6.5639977620390E+01
(PID.TID 0000.0001) %MON exf_lwdown_del2              =   4.8468015449012E-01
(PID.TID 0000.0001) %MON exf_runoff_max               =   2.1474761084509E-06
(PID.TID 0000.0001) %MON exf_runoff_min               =   0.0000000000000E+00
(PID.TID 0000.0001) %MON exf_runoff_mean              =   3.0107793408227E-09
(PID.TID 0000.0001) %MON exf_runoff_sd                =   2.4999488522511E-08
(PID.TID 0000.0001) %MON exf_runoff_del2              =   1.8503660255735E-11
(PID.TID 0000.0001) // =======================================================
(PID.TID 0000.0001) // End MONITOR EXF statistics
(PID.TID 0000.0001) // =======================================================
 SEAICE_LSR: Residual Initial ipass,Uice,Vice=    1  1.44746078E-01  2.15523295E-01
 SEAICE_LSR: Residual FrDrift U_fd,V_fd=  9.25844734E+01  9.08410882E+01
 SEAICE_LSR (ipass=   1) iters,dU,Resid=   418  1.98485565E-04  3.10489080E-03
 SEAICE_LSR (ipass=   1) iters,dV,Resid=   418  1.47960977E-05  8.01118872E-05
 SEAICE_LSR: Residual Initial ipass,Uice,Vice=    2  6.12998163E-01  6.05571045E-01
 SEAICE_LSR: Residual FrDrift U_fd,V_fd=  9.26962108E+01  9.08240799E+01
 SEAICE_LSR (ipass=   2) iters,dU,Resid=   122  1.99552923E-04  2.12997441E-03
 SEAICE_LSR (ipass=   2) iters,dV,Resid=   122  6.13810062E-05  1.14088528E-03
 cg2d: Sum(rhs),rhsMax =   5.97227045115023E+00  3.69283060208528E-01
 cg2d: Sum(rhs),rhsMax =   5.99345923495124E+00  3.64757496936395E-01
(PID.TID 0000.0001)      cg2d_init_res =   2.64365960105236E-01
(PID.TID 0000.0001)      cg2d_iters(min,last) =      -1      91
(PID.TID 0000.0001)      cg2d_last_res =   6.67978381217950E-06
(PID.TID 0000.0001) // =======================================================
(PID.TID 0000.0001) // Begin MONITOR dynamic field statistics
(PID.TID 0000.0001) // =======================================================
(PID.TID 0000.0001) %MON time_tsnumber                =                    82
(PID.TID 0000.0001) %MON time_secondsf                =   2.9520000000000E+05
(PID.TID 0000.0001) %MON dynstat_eta_max              =   1.0872605744698E+00
(PID.TID 0000.0001) %MON dynstat_eta_min              =  -4.0640920050258E+00
(PID.TID 0000.0001) %MON dynstat_eta_mean             =  -3.0334761190436E-03
(PID.TID 0000.0001) %MON dynstat_eta_sd               =   7.3878247691610E-01
(PID.TID 0000.0001) %MON dynstat_eta_del2             =   2.8324802817865E-04
(PID.TID 0000.0001) %MON dynstat_uvel_max             =   9.2351329169125E-01
(PID.TID 0000.0001) %MON dynstat_uvel_min             =  -8.4176446760356E-01
(PID.TID 0000.0001) %MON dynstat_uvel_mean            =   1.3985570440259E-03
(PID.TID 0000.0001) %MON dynstat_uvel_sd              =   2.1366618259362E-02
(PID.TID 0000.0001) %MON dynstat_uvel_del2            =   1.2716941392970E-05
(PID.TID 0000.0001) %MON dynstat_vvel_max             =   1.3999861805021E+00
(PID.TID 0000.0001) %MON dynstat_vvel_min             =  -1.0435922368135E+00
(PID.TID 0000.0001) %MON dynstat_vvel_mean            =   1.1632899364621E-03
(PID.TID 0000.0001) %MON dynstat_vvel_sd              =   2.4304194356602E-02
(PID.TID 0000.0001) %MON dynstat_vvel_del2            =   1.3148506592684E-05
(PID.TID 0000.0001) %MON dynstat_wvel_max             =   5.8141286618182E-04
(PID.TID 0000.0001) %MON dynstat_wvel_min             =  -1.0648307590493E-03
(PID.TID 0000.0001) %MON dynstat_wvel_mean            =   3.3276402271668E-10
(PID.TID 0000.0001) %MON dynstat_wvel_sd              =   2.5284964884544E-05
(PID.TID 0000.0001) %MON dynstat_wvel_del2            =   2.3006360036849E-08
(PID.TID 0000.0001) %MON dynstat_theta_max            =   3.2680296558894E+01
(PID.TID 0000.0001) %MON dynstat_theta_min            =  -2.0416166102451E+00
(PID.TID 0000.0001) %MON dynstat_theta_mean           =   3.5907581874725E+00
(PID.TID 0000.0001) %MON dynstat_theta_sd             =   4.4363166526272E+00
(PID.TID 0000.0001) %MON dynstat_theta_del2           =   1.0514177372384E-04
(PID.TID 0000.0001) %MON dynstat_salt_max             =   4.0711383882035E+01
(PID.TID 0000.0001) %MON dynstat_salt_min             =   1.7563232991353E+01
(PID.TID 0000.0001) %MON dynstat_salt_mean            =   3.4725702503162E+01
(PID.TID 0000.0001) %MON dynstat_salt_sd              =   3.7881979554516E-01
(PID.TID 0000.0001) %MON dynstat_salt_del2            =   2.5443255444698E-05
(PID.TID 0000.0001) %MON dynstat_sst_max              =   3.2680272157041E+01
(PID.TID 0000.0001) %MON dynstat_sst_min              =  -1.9608723176704E+00
(PID.TID 0000.0001) %MON dynstat_sst_mean             =   1.8536627638431E+01
(PID.TID 0000.0001) %MON dynstat_sst_sd               =   1.0044542939009E+01
(PID.TID 0000.0001) %MON dynstat_sst_del2             =   9.0446712717689E-04
(PID.TID 0000.0001) %MON dynstat_sss_max              =   3.9745096816010E+01
(PID.TID 0000.0001) %MON dynstat_sss_min              =   1.7563232991353E+01
(PID.TID 0000.0001) %MON dynstat_sss_mean             =   3.4724800712124E+01
(PID.TID 0000.0001) %MON dynstat_sss_sd               =   1.2165416263806E+00
(PID.TID 0000.0001) %MON dynstat_sss_del2             =   3.8923527504895E-04
(PID.TID 0000.0001) %MON forcing_qnet_max             =   9.8123565946255E+02
(PID.TID 0000.0001) %MON forcing_qnet_min             =  -7.7061531455499E+02
(PID.TID 0000.0001) %MON forcing_qnet_mean            =  -3.0186722278003E+01
(PID.TID 0000.0001) %MON forcing_qnet_sd              =   2.7934202922051E+02
(PID.TID 0000.0001) %MON forcing_qnet_del2            =   1.6509531347227E-01
(PID.TID 0000.0001) %MON forcing_qsw_max              =   2.6041992711370E+01
(PID.TID 0000.0001) %MON forcing_qsw_min              =  -9.2614370353784E+02
(PID.TID 0000.0001) %MON forcing_qsw_mean             =  -2.0980967720792E+02
(PID.TID 0000.0001) %MON forcing_qsw_sd               =   2.5236654129298E+02
(PID.TID 0000.0001) %MON forcing_qsw_del2             =   9.4716103356517E-02
(PID.TID 0000.0001) %MON forcing_empmr_max            =   1.7399430270575E-03
(PID.TID 0000.0001) %MON forcing_empmr_min            =  -2.0851576932632E-03
(PID.TID 0000.0001) %MON forcing_empmr_mean           =   3.0653631214608E-06
(PID.TID 0000.0001) %MON forcing_empmr_sd             =   1.1506454546109E-04
(PID.TID 0000.0001) %MON forcing_empmr_del2           =   4.5273117887967E-07
(PID.TID 0000.0001) %MON forcing_fu_max               =   1.4351915717125E+00
(PID.TID 0000.0001) %MON forcing_fu_min               =  -1.5924553262804E+00
(PID.TID 0000.0001) %MON forcing_fu_mean              =   7.7447259779141E-03
(PID.TID 0000.0001) %MON forcing_fu_sd                =   1.2372237042332E-01
(PID.TID 0000.0001) %MON forcing_fu_del2              =   1.1239857217889E-04
(PID.TID 0000.0001) %MON forcing_fv_max               =   1.7129060626030E+00
(PID.TID 0000.0001) %MON forcing_fv_min               =  -1.1145333647728E+00
(PID.TID 0000.0001) %MON forcing_fv_mean              =   1.4321016520156E-03
(PID.TID 0000.0001) %MON forcing_fv_sd                =   1.3254937314445E-01
(PID.TID 0000.0001) %MON forcing_fv_del2              =   1.1066196680822E-04
(PID.TID 0000.0001) %MON trAdv_CFL_u_max              =   5.8332055797234E-02
(PID.TID 0000.0001) %MON trAdv_CFL_v_max              =   6.2556027225512E-02
(PID.TID 0000.0001) %MON trAdv_CFL_w_max              =   1.8310861279004E-01
(PID.TID 0000.0001) %MON advcfl_uvel_max              =   5.5337027772336E-02
(PID.TID 0000.0001) %MON advcfl_vvel_max              =   6.2934516386284E-02
(PID.TID 0000.0001) %MON advcfl_wvel_max              =   1.8482997568591E-01
(PID.TID 0000.0001) %MON advcfl_W_hf_max              =   1.9382730872694E-01
(PID.TID 0000.0001) %MON pe_b_mean                    =   4.1979007502592E-04
(PID.TID 0000.0001) %MON ke_max                       =   9.8602716063349E-01
(PID.TID 0000.0001) %MON ke_mean                      =   5.0656875763973E-04
(PID.TID 0000.0001) %MON ke_vol                       =   1.3349967947522E+18
(PID.TID 0000.0001) %MON vort_r_min                   =  -1.7959747451684E-05
(PID.TID 0000.0001) %MON vort_r_max                   =   2.5153121061938E-05
(PID.TID 0000.0001) %MON vort_a_mean                  =  -1.9727864647440E-05
(PID.TID 0000.0001) %MON vort_a_sd                    =   7.4543226626800E-05
(PID.TID 0000.0001) %MON vort_p_mean                  =  -2.1760543020865E-05
(PID.TID 0000.0001) %MON vort_p_sd                    =   9.7245349879813E-05
(PID.TID 0000.0001) %MON surfExpan_theta_mean         =  -1.0791480169107E-07
(PID.TID 0000.0001) %MON surfExpan_salt_mean          =   4.8212935552224E-09
(PID.TID 0000.0001) // =======================================================
(PID.TID 0000.0001) // End MONITOR dynamic field statistics
(PID.TID 0000.0001) // =======================================================
(PID.TID 0000.0001) // =======================================================
(PID.TID 0000.0001) // Begin MONITOR SEAICE statistics
(PID.TID 0000.0001) // =======================================================
(PID.TID 0000.0001) %MON seaice_tsnumber              =                    82
(PID.TID 0000.0001) %MON seaice_time_sec              =   2.9520000000000E+05
(PID.TID 0000.0001) %MON seaice_uice_max              =   4.0000000000000E-01
(PID.TID 0000.0001) %MON seaice_uice_min              =  -4.0000000000000E-01
(PID.TID 0000.0001) %MON seaice_uice_mean             =   4.8361213222258E-03
(PID.TID 0000.0001) %MON seaice_uice_sd               =   1.9347488325820E-01
(PID.TID 0000.0001) %MON seaice_uice_del2             =   1.9093332807664E-04
(PID.TID 0000.0001) %MON seaice_vice_max              =   4.0000000000000E-01
(PID.TID 0000.0001) %MON seaice_vice_min              =  -4.0000000000000E-01
(PID.TID 0000.0001) %MON seaice_vice_mean             =  -3.7632569117920E-03
(PID.TID 0000.0001) %MON seaice_vice_sd               =   2.0716171218464E-01
(PID.TID 0000.0001) %MON seaice_vice_del2             =   1.9278246790147E-04
(PID.TID 0000.0001) %MON seaice_area_max              =   9.5000000000000E-01
(PID.TID 0000.0001) %MON seaice_area_min              =   0.0000000000000E+00
(PID.TID 0000.0001) %MON seaice_area_mean             =   3.8036289804814E-02
(PID.TID 0000.0001) %MON seaice_area_sd               =   1.7671541024969E-01
(PID.TID 0000.0001) %MON seaice_area_del2             =   2.5504872193179E-04
(PID.TID 0000.0001) %MON seaice_heff_max              =   3.8737240508955E+00
(PID.TID 0000.0001) %MON seaice_heff_min              =   0.0000000000000E+00
(PID.TID 0000.0001) %MON seaice_heff_mean             =   5.3728798122788E-02
(PID.TID 0000.0001) %MON seaice_heff_sd               =   3.0999833124188E-01
(PID.TID 0000.0001) %MON seaice_heff_del2             =   2.9671006048616E-04
(PID.TID 0000.0001) %MON seaice_hsnow_max             =   9.5350501431781E-01
(PID.TID 0000.0001) %MON seaice_hsnow_min             =  -2.6127379290389E-05
(PID.TID 0000.0001) %MON seaice_hsnow_mean            =   5.1872311609943E-03
(PID.TID 0000.0001) %MON seaice_hsnow_sd              =   3.1321035284137E-02
(PID.TID 0000.0001) %MON seaice_hsnow_del2            =   5.0687121776114E-05
(PID.TID 0000.0001) // =======================================================
(PID.TID 0000.0001) // End MONITOR SEAICE statistics
(PID.TID 0000.0001) // =======================================================
(PID.TID 0000.0001) // =======================================================
(PID.TID 0000.0001) // Begin MONITOR EXF statistics
(PID.TID 0000.0001) // =======================================================
(PID.TID 0000.0001) %MON exf_tsnumber                 =                    82
(PID.TID 0000.0001) %MON exf_time_sec                 =   2.9520000000000E+05
(PID.TID 0000.0001) %MON exf_ustress_max              =   1.4034193952878E+00
(PID.TID 0000.0001) %MON exf_ustress_min              =  -1.0665096322669E+00
(PID.TID 0000.0001) %MON exf_ustress_mean             =   8.5318266335669E-03
(PID.TID 0000.0001) %MON exf_ustress_sd               =   1.1764896238961E-01
(PID.TID 0000.0001) %MON exf_ustress_del2             =   1.0890957531360E-04
(PID.TID 0000.0001) %MON exf_vstress_max              =   1.6099455356598E+00
(PID.TID 0000.0001) %MON exf_vstress_min              =  -1.0137928227584E+00
(PID.TID 0000.0001) %MON exf_vstress_mean             =   1.5617082104751E-03
(PID.TID 0000.0001) %MON exf_vstress_sd               =   1.2579758470295E-01
(PID.TID 0000.0001) %MON exf_vstress_del2             =   9.5690035569881E-05
(PID.TID 0000.0001) %MON exf_hflux_max                =   1.1824177076381E+03
(PID.TID 0000.0001) %MON exf_hflux_min                =  -6.7418578479265E+02
(PID.TID 0000.0001) %MON exf_hflux_mean               =  -1.1942226453522E+01
(PID.TID 0000.0001) %MON exf_hflux_sd                 =   2.6823512376811E+02
(PID.TID 0000.0001) %MON exf_hflux_del2               =   4.6945307012555E-01
(PID.TID 0000.0001) %MON exf_sflux_max                =   2.7748429097584E-07
(PID.TID 0000.0001) %MON exf_sflux_min                =  -2.0873450991617E-06
(PID.TID 0000.0001) %MON exf_sflux_mean               =   4.1705075105718E-09
(PID.TID 0000.0001) %MON exf_sflux_sd                 =   9.4425957991777E-08
(PID.TID 0000.0001) %MON exf_sflux_del2               =   2.5164545250632E-10
(PID.TID 0000.0001) %MON exf_wspeed_max               =   2.6946568489075E+01
(PID.TID 0000.0001) %MON exf_wspeed_min               =   4.2057134707769E-01
(PID.TID 0000.0001) %MON exf_wspeed_mean              =   7.0022294267295E+00
(PID.TID 0000.0001) %MON exf_wspeed_sd                =   3.2191303739126E+00
(PID.TID 0000.0001) %MON exf_wspeed_del2              =   1.2006241815420E-02
(PID.TID 0000.0001) %MON exf_atemp_max                =   3.0479907137553E+02
(PID.TID 0000.0001) %MON exf_atemp_min                =   2.3048499081930E+02
(PID.TID 0000.0001) %MON exf_atemp_mean               =   2.8912951402382E+02
(PID.TID 0000.0001) %MON exf_atemp_sd                 =   1.2312870892026E+01
(PID.TID 0000.0001) %MON exf_atemp_del2               =   2.6374264824295E-02
(PID.TID 0000.0001) %MON exf_aqh_max                  =   2.2038085075716E-02
(PID.TID 0000.0001) %MON exf_aqh_min                  =   7.9182077267130E-05
(PID.TID 0000.0001) %MON exf_aqh_mean                 =   1.0896309135840E-02
(PID.TID 0000.0001) %MON exf_aqh_sd                   =   5.6409303892294E-03
(PID.TID 0000.0001) %MON exf_aqh_del2                 =   1.4506701711187E-05
(PID.TID 0000.0001) %MON exf_lwflux_max               =   2.1272134962248E+02
(PID.TID 0000.0001) %MON exf_lwflux_min               =  -2.7345263102110E+01
(PID.TID 0000.0001) %MON exf_lwflux_mean              =   4.8993547396784E+01
(PID.TID 0000.0001) %MON exf_lwflux_sd                =   2.9018708076089E+01
(PID.TID 0000.0001) %MON exf_lwflux_del2              =   9.9166463321688E-02
(PID.TID 0000.0001) %MON exf_evap_max                 =   2.8744143036180E-07
(PID.TID 0000.0001) %MON exf_evap_min                 =  -2.3425071072858E-08
(PID.TID 0000.0001) %MON exf_evap_mean                =   4.6540464325268E-08
(PID.TID 0000.0001) %MON exf_evap_sd                  =   3.0616572404482E-08
(PID.TID 0000.0001) %MON exf_evap_del2                =   7.6609469701322E-11
(PID.TID 0000.0001) %MON exf_precip_max               =   1.7223496963463E-06
(PID.TID 0000.0001) %MON exf_precip_min               =  -1.6874801704129E-08
(PID.TID 0000.0001) %MON exf_precip_mean              =   3.9360081899500E-08
(PID.TID 0000.0001) %MON exf_precip_sd                =   8.6149694043168E-08
(PID.TID 0000.0001) %MON exf_precip_del2              =   2.5244486781578E-10
(PID.TID 0000.0001) %MON exf_swflux_max               =   2.6058410844519E+01
(PID.TID 0000.0001) %MON exf_swflux_min               =  -8.1398198164087E+02
(PID.TID 0000.0001) %MON exf_swflux_mean              =  -2.0876569238046E+02
(PID.TID 0000.0001) %MON exf_swflux_sd                =   2.1520991454188E+02
(PID.TID 0000.0001) %MON exf_swflux_del2              =   4.2328756126388E-01
(PID.TID 0000.0001) %MON exf_swdown_max               =   8.7778775024414E+02
(PID.TID 0000.0001) %MON exf_swdown_min               =  -3.4918295542399E+01
(PID.TID 0000.0001) %MON exf_swdown_mean              =   2.2641400567283E+02
(PID.TID 0000.0001) %MON exf_swdown_sd                =   2.3256056028999E+02
(PID.TID 0000.0001) %MON exf_swdown_del2              =   4.5944593426322E-01
(PID.TID 0000.0001) %MON exf_lwdown_max               =   4.6595148213704E+02
(PID.TID 0000.0001) %MON exf_lwdown_min               =   8.7373324076335E+01
(PID.TID 0000.0001) %MON exf_lwdown_mean              =   3.6280493331026E+02
(PID.TID 0000.0001) %MON exf_lwdown_sd                =   6.5598401766140E+01
(PID.TID 0000.0001) %MON exf_lwdown_del2              =   4.8491682431285E-01
(PID.TID 0000.0001) %MON exf_runoff_max               =   2.1506302672488E-06
(PID.TID 0000.0001) %MON exf_runoff_min               =   0.0000000000000E+00
(PID.TID 0000.0001) %MON exf_runoff_mean              =   3.0098749151964E-09
(PID.TID 0000.0001) %MON exf_runoff_sd                =   2.5029357208778E-08
(PID.TID 0000.0001) %MON exf_runoff_del2              =   1.8514919982018E-11
(PID.TID 0000.0001) // =======================================================
(PID.TID 0000.0001) // End MONITOR EXF statistics
(PID.TID 0000.0001) // =======================================================
 SEAICE_LSR: Residual Initial ipass,Uice,Vice=    1  1.47376253E-01  2.20087637E-01
 SEAICE_LSR: Residual FrDrift U_fd,V_fd=  9.27702957E+01  9.19572516E+01
 SEAICE_LSR (ipass=   1) iters,dU,Resid=   332  1.97145978E-04  1.80301154E-03
 SEAICE_LSR (ipass=   1) iters,dV,Resid=   332  1.86915622E-05  1.15327262E-04
 SEAICE_LSR: Residual Initial ipass,Uice,Vice=    2  7.28566188E-01  1.45835214E+00
 SEAICE_LSR: Residual FrDrift U_fd,V_fd=  9.27750108E+01  9.19735061E+01
 SEAICE_LSR (ipass=   2) iters,dU,Resid=   102  1.95261454E-04  1.32770333E-03
 SEAICE_LSR (ipass=   2) iters,dV,Resid=   102  8.22375237E-05  1.15320772E-03
 cg2d: Sum(rhs),rhsMax =   6.01966002169221E+00  3.59385247911576E-01
 cg2d: Sum(rhs),rhsMax =   6.05092204344619E+00  3.53565134794023E-01
(PID.TID 0000.0001)      cg2d_init_res =   2.73741467747741E-01
(PID.TID 0000.0001)      cg2d_iters(min,last) =      -1      90
(PID.TID 0000.0001)      cg2d_last_res =   6.82472230315751E-06
(PID.TID 0000.0001) // =======================================================
(PID.TID 0000.0001) // Begin MONITOR dynamic field statistics
(PID.TID 0000.0001) // =======================================================
(PID.TID 0000.0001) %MON time_tsnumber                =                    84
(PID.TID 0000.0001) %MON time_secondsf                =   3.0240000000000E+05
(PID.TID 0000.0001) %MON dynstat_eta_max              =   1.0855555842766E+00
(PID.TID 0000.0001) %MON dynstat_eta_min              =  -4.0557658402340E+00
(PID.TID 0000.0001) %MON dynstat_eta_mean             =  -3.0625598335513E-03
(PID.TID 0000.0001) %MON dynstat_eta_sd               =   7.3854424157640E-01
(PID.TID 0000.0001) %MON dynstat_eta_del2             =   2.8265684114904E-04
(PID.TID 0000.0001) %MON dynstat_uvel_max             =   9.1063948573088E-01
(PID.TID 0000.0001) %MON dynstat_uvel_min             =  -8.5265691611353E-01
(PID.TID 0000.0001) %MON dynstat_uvel_mean            =   1.4000353774121E-03
(PID.TID 0000.0001) %MON dynstat_uvel_sd              =   2.1372065928112E-02
(PID.TID 0000.0001) %MON dynstat_uvel_del2            =   1.2691238221846E-05
(PID.TID 0000.0001) %MON dynstat_vvel_max             =   1.4093646214304E+00
(PID.TID 0000.0001) %MON dynstat_vvel_min             =  -1.0572225565554E+00
(PID.TID 0000.0001) %MON dynstat_vvel_mean            =   1.1696143938748E-03
(PID.TID 0000.0001) %MON dynstat_vvel_sd              =   2.4322238372980E-02
(PID.TID 0000.0001) %MON dynstat_vvel_del2            =   1.3125182763655E-05
(PID.TID 0000.0001) %MON dynstat_wvel_max             =   5.8867023726380E-04
(PID.TID 0000.0001) %MON dynstat_wvel_min             =  -1.0378960007171E-03
(PID.TID 0000.0001) %MON dynstat_wvel_mean            =   5.2585810438000E-10
(PID.TID 0000.0001) %MON dynstat_wvel_sd              =   2.5301102652847E-05
(PID.TID 0000.0001) %MON dynstat_wvel_del2            =   2.2819693278357E-08
(PID.TID 0000.0001) %MON dynstat_theta_max            =   3.2687455709003E+01
(PID.TID 0000.0001) %MON dynstat_theta_min            =  -2.0416154358223E+00
(PID.TID 0000.0001) %MON dynstat_theta_mean           =   3.5907704734367E+00
(PID.TID 0000.0001) %MON dynstat_theta_sd             =   4.4363520092538E+00
(PID.TID 0000.0001) %MON dynstat_theta_del2           =   1.0512419210858E-04
(PID.TID 0000.0001) %MON dynstat_salt_max             =   4.0711384202872E+01
(PID.TID 0000.0001) %MON dynstat_salt_min             =   1.7565549668220E+01
(PID.TID 0000.0001) %MON dynstat_salt_mean            =   3.4725702765531E+01
(PID.TID 0000.0001) %MON dynstat_salt_sd              =   3.7881766369843E-01
(PID.TID 0000.0001) %MON dynstat_salt_del2            =   2.5431943440371E-05
(PID.TID 0000.0001) %MON dynstat_sst_max              =   3.2687449055782E+01
(PID.TID 0000.0001) %MON dynstat_sst_min              =  -1.9608683731680E+00
(PID.TID 0000.0001) %MON dynstat_sst_mean             =   1.8538792023904E+01
(PID.TID 0000.0001) %MON dynstat_sst_sd               =   1.0045183233972E+01
(PID.TID 0000.0001) %MON dynstat_sst_del2             =   9.0532147654742E-04
(PID.TID 0000.0001) %MON dynstat_sss_max              =   3.9746314410961E+01
(PID.TID 0000.0001) %MON dynstat_sss_min              =   1.7565549668220E+01
(PID.TID 0000.0001) %MON dynstat_sss_mean             =   3.4724934661396E+01
(PID.TID 0000.0001) %MON dynstat_sss_sd               =   1.2164469272932E+00
(PID.TID 0000.0001) %MON dynstat_sss_del2             =   3.8907825868557E-04
(PID.TID 0000.0001) %MON forcing_qnet_max             =   9.6096823180848E+02
(PID.TID 0000.0001) %MON forcing_qnet_min             =  -6.9518556703159E+02
(PID.TID 0000.0001) %MON forcing_qnet_mean            =  -2.4926048893043E+01
(PID.TID 0000.0001) %MON forcing_qnet_sd              =   2.1710956248389E+02
(PID.TID 0000.0001) %MON forcing_qnet_del2            =   1.5472540096926E-01
(PID.TID 0000.0001) %MON forcing_qsw_max              =   2.6074829101062E+01
(PID.TID 0000.0001) %MON forcing_qsw_min              =  -7.1361769490616E+02
(PID.TID 0000.0001) %MON forcing_qsw_mean             =  -2.0463638995295E+02
(PID.TID 0000.0001) %MON forcing_qsw_sd               =   1.8725793695285E+02
(PID.TID 0000.0001) %MON forcing_qsw_del2             =   8.0136322878918E-02
(PID.TID 0000.0001) %MON forcing_empmr_max            =   1.7564075195254E-03
(PID.TID 0000.0001) %MON forcing_empmr_min            =  -2.0895460634741E-03
(PID.TID 0000.0001) %MON forcing_empmr_mean           =   4.5226497890175E-06
(PID.TID 0000.0001) %MON forcing_empmr_sd             =   1.0463112758913E-04
(PID.TID 0000.0001) %MON forcing_empmr_del2           =   4.3657977509955E-07
(PID.TID 0000.0001) %MON forcing_fu_max               =   1.3640045722326E+00
(PID.TID 0000.0001) %MON forcing_fu_min               =  -1.4871177476721E+00
(PID.TID 0000.0001) %MON forcing_fu_mean              =   7.7064829272531E-03
(PID.TID 0000.0001) %MON forcing_fu_sd                =   1.1914702537929E-01
(PID.TID 0000.0001) %MON forcing_fu_del2              =   1.0017175916367E-04
(PID.TID 0000.0001) %MON forcing_fv_max               =   1.4933216373126E+00
(PID.TID 0000.0001) %MON forcing_fv_min               =  -1.0228436191877E+00
(PID.TID 0000.0001) %MON forcing_fv_mean              =   1.6960497788541E-03
(PID.TID 0000.0001) %MON forcing_fv_sd                =   1.2901465412372E-01
(PID.TID 0000.0001) %MON forcing_fv_del2              =   9.9198966829248E-05
(PID.TID 0000.0001) %MON trAdv_CFL_u_max              =   5.7583586856254E-02
(PID.TID 0000.0001) %MON trAdv_CFL_v_max              =   6.3717684435215E-02
(PID.TID 0000.0001) %MON trAdv_CFL_w_max              =   1.7250094464023E-01
(PID.TID 0000.0001) %MON advcfl_uvel_max              =   5.4565627767188E-02
(PID.TID 0000.0001) %MON advcfl_vvel_max              =   6.4066315169705E-02
(PID.TID 0000.0001) %MON advcfl_wvel_max              =   1.7471392633510E-01
(PID.TID 0000.0001) %MON advcfl_W_hf_max              =   1.8321969153439E-01
(PID.TID 0000.0001) %MON pe_b_mean                    =   4.1944060685392E-04
(PID.TID 0000.0001) %MON ke_max                       =   9.9360306224960E-01
(PID.TID 0000.0001) %MON ke_mean                      =   5.0711328981838E-04
(PID.TID 0000.0001) %MON ke_vol                       =   1.3349967861652E+18
(PID.TID 0000.0001) %MON vort_r_min                   =  -1.7791624409079E-05
(PID.TID 0000.0001) %MON vort_r_max                   =   2.5698311829347E-05
(PID.TID 0000.0001) %MON vort_a_mean                  =  -1.9727864647440E-05
(PID.TID 0000.0001) %MON vort_a_sd                    =   7.4543225739095E-05
(PID.TID 0000.0001) %MON vort_p_mean                  =  -2.1760543117554E-05
(PID.TID 0000.0001) %MON vort_p_sd                    =   9.7245517608858E-05
(PID.TID 0000.0001) %MON surfExpan_theta_mean         =  -1.3761717654997E-07
(PID.TID 0000.0001) %MON surfExpan_salt_mean          =   4.4026541292300E-09
(PID.TID 0000.0001) // =======================================================
(PID.TID 0000.0001) // End MONITOR dynamic field statistics
(PID.TID 0000.0001) // =======================================================
(PID.TID 0000.0001) // =======================================================
(PID.TID 0000.0001) // Begin MONITOR SEAICE statistics
(PID.TID 0000.0001) // =======================================================
(PID.TID 0000.0001) %MON seaice_tsnumber              =                    84
(PID.TID 0000.0001) %MON seaice_time_sec              =   3.0240000000000E+05
(PID.TID 0000.0001) %MON seaice_uice_max              =   4.0000000000000E-01
(PID.TID 0000.0001) %MON seaice_uice_min              =  -4.0000000000000E-01
(PID.TID 0000.0001) %MON seaice_uice_mean             =   4.5751700008245E-03
(PID.TID 0000.0001) %MON seaice_uice_sd               =   1.9290716743364E-01
(PID.TID 0000.0001) %MON seaice_uice_del2             =   1.8791926350116E-04
(PID.TID 0000.0001) %MON seaice_vice_max              =   4.0000000000000E-01
(PID.TID 0000.0001) %MON seaice_vice_min              =  -4.0000000000000E-01
(PID.TID 0000.0001) %MON seaice_vice_mean             =  -3.3411413517699E-03
(PID.TID 0000.0001) %MON seaice_vice_sd               =   2.0661247123602E-01
(PID.TID 0000.0001) %MON seaice_vice_del2             =   1.9290759917302E-04
(PID.TID 0000.0001) %MON seaice_area_max              =   9.5000000000000E-01
(PID.TID 0000.0001) %MON seaice_area_min              =   0.0000000000000E+00
(PID.TID 0000.0001) %MON seaice_area_mean             =   3.8005643325375E-02
(PID.TID 0000.0001) %MON seaice_area_sd               =   1.7665583263979E-01
(PID.TID 0000.0001) %MON seaice_area_del2             =   2.5841037685341E-04
(PID.TID 0000.0001) %MON seaice_heff_max              =   3.8595803994741E+00
(PID.TID 0000.0001) %MON seaice_heff_min              =   0.0000000000000E+00
(PID.TID 0000.0001) %MON seaice_heff_mean             =   5.3737644343672E-02
(PID.TID 0000.0001) %MON seaice_heff_sd               =   3.1013001123912E-01
(PID.TID 0000.0001) %MON seaice_heff_del2             =   2.9619833188292E-04
(PID.TID 0000.0001) %MON seaice_hsnow_max             =   9.5276836855087E-01
(PID.TID 0000.0001) %MON seaice_hsnow_min             =  -3.8280258881943E-05
(PID.TID 0000.0001) %MON seaice_hsnow_mean            =   5.1844624164914E-03
(PID.TID 0000.0001) %MON seaice_hsnow_sd              =   3.1304055231230E-02
(PID.TID 0000.0001) %MON seaice_hsnow_del2            =   5.0432528987001E-05
(PID.TID 0000.0001) // =======================================================
(PID.TID 0000.0001) // End MONITOR SEAICE statistics
(PID.TID 0000.0001) // =======================================================
(PID.TID 0000.0001) // =======================================================
(PID.TID 0000.0001) // Begin MONITOR EXF statistics
(PID.TID 0000.0001) // =======================================================
(PID.TID 0000.0001) %MON exf_tsnumber                 =                    84
(PID.TID 0000.0001) %MON exf_time_sec                 =   3.0240000000000E+05
(PID.TID 0000.0001) %MON exf_ustress_max              =   1.3746355175972E+00
(PID.TID 0000.0001) %MON exf_ustress_min              =  -9.8589359296985E-01
(PID.TID 0000.0001) %MON exf_ustress_mean             =   8.5643488316189E-03
(PID.TID 0000.0001) %MON exf_ustress_sd               =   1.1518722367752E-01
(PID.TID 0000.0001) %MON exf_ustress_del2             =   1.0604863563722E-04
(PID.TID 0000.0001) %MON exf_vstress_max              =   1.4117242693901E+00
(PID.TID 0000.0001) %MON exf_vstress_min              =  -1.0629433691502E+00
(PID.TID 0000.0001) %MON exf_vstress_mean             =   1.8581002015846E-03
(PID.TID 0000.0001) %MON exf_vstress_sd               =   1.2402532429278E-01
(PID.TID 0000.0001) %MON exf_vstress_del2             =   8.9760464148194E-05
(PID.TID 0000.0001) %MON exf_hflux_max                =   1.1522039117813E+03
(PID.TID 0000.0001) %MON exf_hflux_min                =  -6.0893857239407E+02
(PID.TID 0000.0001) %MON exf_hflux_mean               =  -6.5668371625286E+00
(PID.TID 0000.0001) %MON exf_hflux_sd                 =   2.3238958901164E+02
(PID.TID 0000.0001) %MON exf_hflux_del2               =   4.2342397628954E-01
(PID.TID 0000.0001) %MON exf_sflux_max                =   2.7747294266087E-07
(PID.TID 0000.0001) %MON exf_sflux_min                =  -2.0917645033746E-06
(PID.TID 0000.0001) %MON exf_sflux_mean               =   5.6045593804836E-09
(PID.TID 0000.0001) %MON exf_sflux_sd                 =   8.5842195652679E-08
(PID.TID 0000.0001) %MON exf_sflux_del2               =   2.1219443227319E-10
(PID.TID 0000.0001) %MON exf_wspeed_max               =   2.5204990386963E+01
(PID.TID 0000.0001) %MON exf_wspeed_min               =   4.6797046065331E-01
(PID.TID 0000.0001) %MON exf_wspeed_mean              =   7.0346645465415E+00
(PID.TID 0000.0001) %MON exf_wspeed_sd                =   3.2049539873579E+00
(PID.TID 0000.0001) %MON exf_wspeed_del2              =   1.1976006107670E-02
(PID.TID 0000.0001) %MON exf_atemp_max                =   3.0303662815094E+02
(PID.TID 0000.0001) %MON exf_atemp_min                =   2.3054176750183E+02
(PID.TID 0000.0001) %MON exf_atemp_mean               =   2.8914669917552E+02
(PID.TID 0000.0001) %MON exf_atemp_sd                 =   1.2312396438773E+01
(PID.TID 0000.0001) %MON exf_atemp_del2               =   2.6378165978301E-02
(PID.TID 0000.0001) %MON exf_aqh_max                  =   2.1597647108138E-02
(PID.TID 0000.0001) %MON exf_aqh_min                  =   7.8634944657097E-05
(PID.TID 0000.0001) %MON exf_aqh_mean                 =   1.0912353277707E-02
(PID.TID 0000.0001) %MON exf_aqh_sd                   =   5.6476307289024E-03
(PID.TID 0000.0001) %MON exf_aqh_del2                 =   1.4508023685134E-05
(PID.TID 0000.0001) %MON exf_lwflux_max               =   2.1568144791959E+02
(PID.TID 0000.0001) %MON exf_lwflux_min               =  -2.8896446725058E+01
(PID.TID 0000.0001) %MON exf_lwflux_mean              =   4.9135625851111E+01
(PID.TID 0000.0001) %MON exf_lwflux_sd                =   2.8606797406337E+01
(PID.TID 0000.0001) %MON exf_lwflux_del2              =   9.8227820061195E-02
(PID.TID 0000.0001) %MON exf_evap_max                 =   2.8538014260603E-07
(PID.TID 0000.0001) %MON exf_evap_min                 =  -2.2896501259775E-08
(PID.TID 0000.0001) %MON exf_evap_mean                =   4.6599526727459E-08
(PID.TID 0000.0001) %MON exf_evap_sd                  =   3.0557086984314E-08
(PID.TID 0000.0001) %MON exf_evap_del2                =   7.5972012098295E-11
(PID.TID 0000.0001) %MON exf_precip_max               =   1.0833492112283E-06
(PID.TID 0000.0001) %MON exf_precip_min               =  -1.6950907344437E-08
(PID.TID 0000.0001) %MON exf_precip_mean              =   3.7985996857405E-08
(PID.TID 0000.0001) %MON exf_precip_sd                =   7.6651309017105E-08
(PID.TID 0000.0001) %MON exf_precip_del2              =   2.1370353438126E-10
(PID.TID 0000.0001) %MON exf_swflux_max               =   2.6091247480999E+01
(PID.TID 0000.0001) %MON exf_swflux_min               =  -7.0170691266874E+02
(PID.TID 0000.0001) %MON exf_swflux_mean              =  -2.0356140196327E+02
(PID.TID 0000.0001) %MON exf_swflux_sd                =   1.7432158451828E+02
(PID.TID 0000.0001) %MON exf_swflux_del2              =   3.7353342243970E-01
(PID.TID 0000.0001) %MON exf_swdown_max               =   7.5796823120117E+02
(PID.TID 0000.0001) %MON exf_swdown_min               =  -3.4962032318115E+01
(PID.TID 0000.0001) %MON exf_swdown_mean              =   2.2074101050448E+02
(PID.TID 0000.0001) %MON exf_swdown_sd                =   1.8831965861955E+02
(PID.TID 0000.0001) %MON exf_swdown_del2              =   4.0544596333876E-01
(PID.TID 0000.0001) %MON exf_lwdown_max               =   4.6408798217773E+02
(PID.TID 0000.0001) %MON exf_lwdown_min               =   8.4321693420410E+01
(PID.TID 0000.0001) %MON exf_lwdown_mean              =   3.6267104198661E+02
(PID.TID 0000.0001) %MON exf_lwdown_sd                =   6.5569035022879E+01
(PID.TID 0000.0001) %MON exf_lwdown_del2              =   4.8480176136310E-01
(PID.TID 0000.0001) %MON exf_runoff_max               =   2.1537844260468E-06
(PID.TID 0000.0001) %MON exf_runoff_min               =   0.0000000000000E+00
(PID.TID 0000.0001) %MON exf_runoff_mean              =   3.0089704895702E-09
(PID.TID 0000.0001) %MON exf_runoff_sd                =   2.5059241958289E-08
(PID.TID 0000.0001) %MON exf_runoff_del2              =   1.8526203290431E-11
(PID.TID 0000.0001) // =======================================================
(PID.TID 0000.0001) // End MONITOR EXF statistics
(PID.TID 0000.0001) // =======================================================
 SEAICE_LSR: Residual Initial ipass,Uice,Vice=    1  1.39963844E-01  2.20287343E-01
 SEAICE_LSR: Residual FrDrift U_fd,V_fd=  9.29907375E+01  9.36638974E+01
 SEAICE_LSR (ipass=   1) iters,dU,Resid=   240  1.98167192E-04  1.12182016E-03
 SEAICE_LSR (ipass=   1) iters,dV,Resid=   240  2.33215833E-05  2.15575805E-04
 SEAICE_LSR: Residual Initial ipass,Uice,Vice=    2  6.87039736E-01  9.61953012E-01
 SEAICE_LSR: Residual FrDrift U_fd,V_fd=  9.30827491E+01  9.36888190E+01
 SEAICE_LSR (ipass=   2) iters,dU,Resid=    80  1.95045074E-04  1.21713028E-03
 SEAICE_LSR (ipass=   2) iters,dV,Resid=    80  1.41975375E-04  1.15545680E-03
 cg2d: Sum(rhs),rhsMax =   6.08703088687932E+00  3.49457986610799E-01
 cg2d: Sum(rhs),rhsMax =   6.12783587962873E+00  3.45986321437612E-01
(PID.TID 0000.0001)      cg2d_init_res =   2.58341212354094E-01
(PID.TID 0000.0001)      cg2d_iters(min,last) =      -1      89
(PID.TID 0000.0001)      cg2d_last_res =   6.77804826007068E-06
(PID.TID 0000.0001) // =======================================================
(PID.TID 0000.0001) // Begin MONITOR dynamic field statistics
(PID.TID 0000.0001) // =======================================================
(PID.TID 0000.0001) %MON time_tsnumber                =                    86
(PID.TID 0000.0001) %MON time_secondsf                =   3.0960000000000E+05
(PID.TID 0000.0001) %MON dynstat_eta_max              =   1.0833642932554E+00
(PID.TID 0000.0001) %MON dynstat_eta_min              =  -4.0476362078378E+00
(PID.TID 0000.0001) %MON dynstat_eta_mean             =  -3.1014883181103E-03
(PID.TID 0000.0001) %MON dynstat_eta_sd               =   7.3830263442517E-01
(PID.TID 0000.0001) %MON dynstat_eta_del2             =   2.8196906396457E-04
(PID.TID 0000.0001) %MON dynstat_uvel_max             =   8.7148961837051E-01
(PID.TID 0000.0001) %MON dynstat_uvel_min             =  -8.5986498472766E-01
(PID.TID 0000.0001) %MON dynstat_uvel_mean            =   1.4028936961016E-03
(PID.TID 0000.0001) %MON dynstat_uvel_sd              =   2.1364554421581E-02
(PID.TID 0000.0001) %MON dynstat_uvel_del2            =   1.2645465967980E-05
(PID.TID 0000.0001) %MON dynstat_vvel_max             =   1.4182325229866E+00
(PID.TID 0000.0001) %MON dynstat_vvel_min             =  -1.0653754973840E+00
(PID.TID 0000.0001) %MON dynstat_vvel_mean            =   1.1776957225618E-03
(PID.TID 0000.0001) %MON dynstat_vvel_sd              =   2.4345680724676E-02
(PID.TID 0000.0001) %MON dynstat_vvel_del2            =   1.3095721826880E-05
(PID.TID 0000.0001) %MON dynstat_wvel_max             =   5.8307430823994E-04
(PID.TID 0000.0001) %MON dynstat_wvel_min             =  -1.0091875262055E-03
(PID.TID 0000.0001) %MON dynstat_wvel_mean            =   1.2871784129398E-10
(PID.TID 0000.0001) %MON dynstat_wvel_sd              =   2.5400910899437E-05
(PID.TID 0000.0001) %MON dynstat_wvel_del2            =   2.2666324152059E-08
(PID.TID 0000.0001) %MON dynstat_theta_max            =   3.2717613864714E+01
(PID.TID 0000.0001) %MON dynstat_theta_min            =  -2.0416134083795E+00
(PID.TID 0000.0001) %MON dynstat_theta_mean           =   3.5907802356816E+00
(PID.TID 0000.0001) %MON dynstat_theta_sd             =   4.4363799458517E+00
(PID.TID 0000.0001) %MON dynstat_theta_del2           =   1.0508985908965E-04
(PID.TID 0000.0001) %MON dynstat_salt_max             =   4.0711384978738E+01
(PID.TID 0000.0001) %MON dynstat_salt_min             =   1.7567444369441E+01
(PID.TID 0000.0001) %MON dynstat_salt_mean            =   3.4725703118232E+01
(PID.TID 0000.0001) %MON dynstat_salt_sd              =   3.7881548875891E-01
(PID.TID 0000.0001) %MON dynstat_salt_del2            =   2.5416927565457E-05
(PID.TID 0000.0001) %MON dynstat_sst_max              =   3.2717613864714E+01
(PID.TID 0000.0001) %MON dynstat_sst_min              =  -1.9608797247245E+00
(PID.TID 0000.0001) %MON dynstat_sst_mean             =   1.8539915181062E+01
(PID.TID 0000.0001) %MON dynstat_sst_sd               =   1.0045349886644E+01
(PID.TID 0000.0001) %MON dynstat_sst_del2             =   9.0591512577979E-04
(PID.TID 0000.0001) %MON dynstat_sss_max              =   3.9747565568709E+01
(PID.TID 0000.0001) %MON dynstat_sss_min              =   1.7567444369441E+01
(PID.TID 0000.0001) %MON dynstat_sss_mean             =   3.4725054339810E+01
(PID.TID 0000.0001) %MON dynstat_sss_sd               =   1.2164230554570E+00
(PID.TID 0000.0001) %MON dynstat_sss_del2             =   3.8875894754315E-04
(PID.TID 0000.0001) %MON forcing_qnet_max             =   9.4892121951564E+02
(PID.TID 0000.0001) %MON forcing_qnet_min             =  -7.6491462669016E+02
(PID.TID 0000.0001) %MON forcing_qnet_mean            =  -1.9645695170020E+01
(PID.TID 0000.0001) %MON forcing_qnet_sd              =   2.0567369171682E+02
(PID.TID 0000.0001) %MON forcing_qnet_del2            =   1.5460291257112E-01
(PID.TID 0000.0001) %MON forcing_qsw_max              =   2.6107716050677E+01
(PID.TID 0000.0001) %MON forcing_qsw_min              =  -7.4132340207148E+02
(PID.TID 0000.0001) %MON forcing_qsw_mean             =  -1.9946131893480E+02
(PID.TID 0000.0001) %MON forcing_qsw_sd               =   1.7825366267681E+02
(PID.TID 0000.0001) %MON forcing_qsw_del2             =   7.8242660967811E-02
(PID.TID 0000.0001) %MON forcing_empmr_max            =   1.7539650091932E-03
(PID.TID 0000.0001) %MON forcing_empmr_min            =  -2.0940026026126E-03
(PID.TID 0000.0001) %MON forcing_empmr_mean           =   5.9032231920900E-06
(PID.TID 0000.0001) %MON forcing_empmr_sd             =   1.0107435485531E-04
(PID.TID 0000.0001) %MON forcing_empmr_del2           =   4.3265628096742E-07
(PID.TID 0000.0001) %MON forcing_fu_max               =   1.3772014776866E+00
(PID.TID 0000.0001) %MON forcing_fu_min               =  -1.3835713566225E+00
(PID.TID 0000.0001) %MON forcing_fu_mean              =   7.6789287234399E-03
(PID.TID 0000.0001) %MON forcing_fu_sd                =   1.1876983760221E-01
(PID.TID 0000.0001) %MON forcing_fu_del2              =   1.0178943220079E-04
(PID.TID 0000.0001) %MON forcing_fv_max               =   1.3484403093656E+00
(PID.TID 0000.0001) %MON forcing_fv_min               =  -1.1039324204127E+00
(PID.TID 0000.0001) %MON forcing_fv_mean              =   1.9462692212808E-03
(PID.TID 0000.0001) %MON forcing_fv_sd                =   1.2960818882179E-01
(PID.TID 0000.0001) %MON forcing_fv_del2              =   9.9007385507717E-05
(PID.TID 0000.0001) %MON trAdv_CFL_u_max              =   5.5256013619535E-02
(PID.TID 0000.0001) %MON trAdv_CFL_v_max              =   6.4472957375340E-02
(PID.TID 0000.0001) %MON trAdv_CFL_w_max              =   1.6237384339444E-01
(PID.TID 0000.0001) %MON advcfl_uvel_max              =   5.2219762995241E-02
(PID.TID 0000.0001) %MON advcfl_vvel_max              =   6.4791730829241E-02
(PID.TID 0000.0001) %MON advcfl_wvel_max              =   1.6505590661714E-01
(PID.TID 0000.0001) %MON advcfl_W_hf_max              =   1.7309266350283E-01
(PID.TID 0000.0001) %MON pe_b_mean                    =   4.1909878444005E-04
(PID.TID 0000.0001) %MON ke_max                       =   1.0092336994692E+00
(PID.TID 0000.0001) %MON ke_mean                      =   5.0752177550334E-04
(PID.TID 0000.0001) %MON ke_vol                       =   1.3349967739574E+18
(PID.TID 0000.0001) %MON vort_r_min                   =  -1.7504563610111E-05
(PID.TID 0000.0001) %MON vort_r_max                   =   2.6092694093809E-05
(PID.TID 0000.0001) %MON vort_a_mean                  =  -1.9727864647440E-05
(PID.TID 0000.0001) %MON vort_a_sd                    =   7.4543224416294E-05
(PID.TID 0000.0001) %MON vort_p_mean                  =  -2.1760543230669E-05
(PID.TID 0000.0001) %MON vort_p_sd                    =   9.7245673807337E-05
(PID.TID 0000.0001) %MON surfExpan_theta_mean         =  -1.6955235391338E-07
(PID.TID 0000.0001) %MON surfExpan_salt_mean          =   5.4235980670436E-09
(PID.TID 0000.0001) // =======================================================
(PID.TID 0000.0001) // End MONITOR dynamic field statistics
(PID.TID 0000.0001) // =======================================================
(PID.TID 0000.0001) // =======================================================
(PID.TID 0000.0001) // Begin MONITOR SEAICE statistics
(PID.TID 0000.0001) // =======================================================
(PID.TID 0000.0001) %MON seaice_tsnumber              =                    86
(PID.TID 0000.0001) %MON seaice_time_sec              =   3.0960000000000E+05
(PID.TID 0000.0001) %MON seaice_uice_max              =   4.0000000000000E-01
(PID.TID 0000.0001) %MON seaice_uice_min              =  -4.0000000000000E-01
(PID.TID 0000.0001) %MON seaice_uice_mean             =   4.2927982201749E-03
(PID.TID 0000.0001) %MON seaice_uice_sd               =   1.9246786350697E-01
(PID.TID 0000.0001) %MON seaice_uice_del2             =   1.8644779103297E-04
(PID.TID 0000.0001) %MON seaice_vice_max              =   4.0000000000000E-01
(PID.TID 0000.0001) %MON seaice_vice_min              =  -4.0000000000000E-01
(PID.TID 0000.0001) %MON seaice_vice_mean             =  -3.0265055092793E-03
(PID.TID 0000.0001) %MON seaice_vice_sd               =   2.0636708483981E-01
(PID.TID 0000.0001) %MON seaice_vice_del2             =   1.9197685803598E-04
(PID.TID 0000.0001) %MON seaice_area_max              =   9.5000000000000E-01
(PID.TID 0000.0001) %MON seaice_area_min              =   0.0000000000000E+00
(PID.TID 0000.0001) %MON seaice_area_mean             =   3.7980825301028E-02
(PID.TID 0000.0001) %MON seaice_area_sd               =   1.7660614475454E-01
(PID.TID 0000.0001) %MON seaice_area_del2             =   2.5733486296108E-04
(PID.TID 0000.0001) %MON seaice_heff_max              =   3.8545078045307E+00
(PID.TID 0000.0001) %MON seaice_heff_min              =   0.0000000000000E+00
(PID.TID 0000.0001) %MON seaice_heff_mean             =   5.3746491324227E-02
(PID.TID 0000.0001) %MON seaice_heff_sd               =   3.1026272486021E-01
(PID.TID 0000.0001) %MON seaice_heff_del2             =   2.9557931671493E-04
(PID.TID 0000.0001) %MON seaice_hsnow_max             =   9.5204262519546E-01
(PID.TID 0000.0001) %MON seaice_hsnow_min             =  -7.2781915253160E-05
(PID.TID 0000.0001) %MON seaice_hsnow_mean            =   5.1814406861382E-03
(PID.TID 0000.0001) %MON seaice_hsnow_sd              =   3.1286122287045E-02
(PID.TID 0000.0001) %MON seaice_hsnow_del2            =   5.0252798361403E-05
(PID.TID 0000.0001) // =======================================================
(PID.TID 0000.0001) // End MONITOR SEAICE statistics
(PID.TID 0000.0001) // =======================================================
(PID.TID 0000.0001) // =======================================================
(PID.TID 0000.0001) // Begin MONITOR EXF statistics
(PID.TID 0000.0001) // =======================================================
(PID.TID 0000.0001) %MON exf_tsnumber                 =                    86
(PID.TID 0000.0001) %MON exf_time_sec                 =   3.0960000000000E+05
(PID.TID 0000.0001) %MON exf_ustress_max              =   1.3980600237846E+00
(PID.TID 0000.0001) %MON exf_ustress_min              =  -1.0139093399048E+00
(PID.TID 0000.0001) %MON exf_ustress_mean             =   8.5968710296709E-03
(PID.TID 0000.0001) %MON exf_ustress_sd               =   1.1712310675058E-01
(PID.TID 0000.0001) %MON exf_ustress_del2             =   1.1992391337916E-04
(PID.TID 0000.0001) %MON exf_vstress_max              =   1.3740874926249E+00
(PID.TID 0000.0001) %MON exf_vstress_min              =  -1.1999019632737E+00
(PID.TID 0000.0001) %MON exf_vstress_mean             =   2.1544921926940E-03
(PID.TID 0000.0001) %MON exf_vstress_sd               =   1.2655789415791E-01
(PID.TID 0000.0001) %MON exf_vstress_del2             =   1.0092104343367E-04
(PID.TID 0000.0001) %MON exf_hflux_max                =   1.2930478574031E+03
(PID.TID 0000.0001) %MON exf_hflux_min                =  -6.8628249923053E+02
(PID.TID 0000.0001) %MON exf_hflux_mean               =  -1.1646018638715E+00
(PID.TID 0000.0001) %MON exf_hflux_sd                 =   2.4913537394339E+02
(PID.TID 0000.0001) %MON exf_hflux_del2               =   4.3439062229732E-01
(PID.TID 0000.0001) %MON exf_sflux_max                =   2.7714488818723E-07
(PID.TID 0000.0001) %MON exf_sflux_min                =  -2.0962623570836E-06
(PID.TID 0000.0001) %MON exf_sflux_mean               =   7.0203156673729E-09
(PID.TID 0000.0001) %MON exf_sflux_sd                 =   8.5498229312244E-08
(PID.TID 0000.0001) %MON exf_sflux_del2               =   2.1936814441587E-10
(PID.TID 0000.0001) %MON exf_wspeed_max               =   2.9281262715658E+01
(PID.TID 0000.0001) %MON exf_wspeed_min               =   4.1511540363232E-01
(PID.TID 0000.0001) %MON exf_wspeed_mean              =   7.0670996663534E+00
(PID.TID 0000.0001) %MON exf_wspeed_sd                =   3.2971732959548E+00
(PID.TID 0000.0001) %MON exf_wspeed_del2              =   1.2187592278953E-02
(PID.TID 0000.0001) %MON exf_atemp_max                =   3.0312641754150E+02
(PID.TID 0000.0001) %MON exf_atemp_min                =   2.3059854418437E+02
(PID.TID 0000.0001) %MON exf_atemp_mean               =   2.8916388432722E+02
(PID.TID 0000.0001) %MON exf_atemp_sd                 =   1.2320341506771E+01
(PID.TID 0000.0001) %MON exf_atemp_del2               =   2.6402560464988E-02
(PID.TID 0000.0001) %MON exf_aqh_max                  =   2.2093079984188E-02
(PID.TID 0000.0001) %MON exf_aqh_min                  =   7.8005334216869E-05
(PID.TID 0000.0001) %MON exf_aqh_mean                 =   1.0928397419574E-02
(PID.TID 0000.0001) %MON exf_aqh_sd                   =   5.6622966549983E-03
(PID.TID 0000.0001) %MON exf_aqh_del2                 =   1.4534051267107E-05
(PID.TID 0000.0001) %MON exf_lwflux_max               =   2.1864154713793E+02
(PID.TID 0000.0001) %MON exf_lwflux_min               =  -3.0436089994975E+01
(PID.TID 0000.0001) %MON exf_lwflux_mean              =   4.9271761469972E+01
(PID.TID 0000.0001) %MON exf_lwflux_sd                =   2.8953413235151E+01
(PID.TID 0000.0001) %MON exf_lwflux_del2              =   9.8746316500520E-02
(PID.TID 0000.0001) %MON exf_evap_max                 =   2.8508940431176E-07
(PID.TID 0000.0001) %MON exf_evap_min                 =  -2.5927651995668E-08
(PID.TID 0000.0001) %MON exf_evap_mean                =   4.6640293546627E-08
(PID.TID 0000.0001) %MON exf_evap_sd                  =   3.1157335837047E-08
(PID.TID 0000.0001) %MON exf_evap_del2                =   7.7194524092820E-11
(PID.TID 0000.0001) %MON exf_precip_max               =   1.1109040940482E-06
(PID.TID 0000.0001) %MON exf_precip_min               =  -1.7027012984746E-08
(PID.TID 0000.0001) %MON exf_precip_mean              =   3.6611911815311E-08
(PID.TID 0000.0001) %MON exf_precip_sd                =   7.5977312026795E-08
(PID.TID 0000.0001) %MON exf_precip_del2              =   2.2056065057020E-10
(PID.TID 0000.0001) %MON exf_swflux_max               =   2.6124202685054E+01
(PID.TID 0000.0001) %MON exf_swflux_min               =  -8.2184464614570E+02
(PID.TID 0000.0001) %MON exf_swflux_mean              =  -1.9835708921476E+02
(PID.TID 0000.0001) %MON exf_swflux_sd                =   1.9965940537470E+02
(PID.TID 0000.0001) %MON exf_swflux_del2              =   3.8263512030391E-01
(PID.TID 0000.0001) %MON exf_swdown_max               =   8.8626744079590E+02
(PID.TID 0000.0001) %MON exf_swdown_min               =  -3.5005769093831E+01
(PID.TID 0000.0001) %MON exf_swdown_mean              =   2.1506801533613E+02
(PID.TID 0000.0001) %MON exf_swdown_sd                =   2.1585116955279E+02
(PID.TID 0000.0001) %MON exf_swdown_del2              =   4.1509180823760E-01
(PID.TID 0000.0001) %MON exf_lwdown_max               =   4.6412426757812E+02
(PID.TID 0000.0001) %MON exf_lwdown_min               =   8.1270062764486E+01
(PID.TID 0000.0001) %MON exf_lwdown_mean              =   3.6253715066296E+02
(PID.TID 0000.0001) %MON exf_lwdown_sd                =   6.5891681407503E+01
(PID.TID 0000.0001) %MON exf_lwdown_del2              =   4.8500320303086E-01
(PID.TID 0000.0001) %MON exf_runoff_max               =   2.1569385848447E-06
(PID.TID 0000.0001) %MON exf_runoff_min               =   0.0000000000000E+00
(PID.TID 0000.0001) %MON exf_runoff_mean              =   3.0080660639440E-09
(PID.TID 0000.0001) %MON exf_runoff_sd                =   2.5089142713643E-08
(PID.TID 0000.0001) %MON exf_runoff_del2              =   1.8537510137910E-11
(PID.TID 0000.0001) // =======================================================
(PID.TID 0000.0001) // End MONITOR EXF statistics
(PID.TID 0000.0001) // =======================================================
 SEAICE_LSR: Residual Initial ipass,Uice,Vice=    1  1.41770269E-01  2.25338611E-01
 SEAICE_LSR: Residual FrDrift U_fd,V_fd=  9.38645395E+01  9.53557523E+01
 SEAICE_LSR (ipass=   1) iters,dU,Resid=   172  1.98806018E-04  1.33741358E-03
 SEAICE_LSR (ipass=   1) iters,dV,Resid=   172  7.83089537E-05  7.05750538E-04
 SEAICE_LSR: Residual Initial ipass,Uice,Vice=    2  7.57884605E-01  6.96513290E-01
 SEAICE_LSR: Residual FrDrift U_fd,V_fd=  9.37447518E+01  9.53580183E+01
 SEAICE_LSR (ipass=   2) iters,dU,Resid=    68  1.60615220E-04  1.39953182E-03
 SEAICE_LSR (ipass=   2) iters,dV,Resid=    68  1.97183391E-04  1.34536262E-03
 cg2d: Sum(rhs),rhsMax =   6.17350738908262E+00  3.43721159698365E-01
 cg2d: Sum(rhs),rhsMax =   6.22431077439895E+00  3.43189957337257E-01
(PID.TID 0000.0001)      cg2d_init_res =   2.58200012472490E-01
(PID.TID 0000.0001)      cg2d_iters(min,last) =      -1      90
(PID.TID 0000.0001)      cg2d_last_res =   6.94264887220447E-06
(PID.TID 0000.0001) // =======================================================
(PID.TID 0000.0001) // Begin MONITOR dynamic field statistics
(PID.TID 0000.0001) // =======================================================
(PID.TID 0000.0001) %MON time_tsnumber                =                    88
(PID.TID 0000.0001) %MON time_secondsf                =   3.1680000000000E+05
(PID.TID 0000.0001) %MON dynstat_eta_max              =   1.0808822673624E+00
(PID.TID 0000.0001) %MON dynstat_eta_min              =  -4.0395421270626E+00
(PID.TID 0000.0001) %MON dynstat_eta_mean             =  -3.1503172627816E-03
(PID.TID 0000.0001) %MON dynstat_eta_sd               =   7.3804376554451E-01
(PID.TID 0000.0001) %MON dynstat_eta_del2             =   2.8140737778114E-04
(PID.TID 0000.0001) %MON dynstat_uvel_max             =   8.2076072515666E-01
(PID.TID 0000.0001) %MON dynstat_uvel_min             =  -8.6187052446331E-01
(PID.TID 0000.0001) %MON dynstat_uvel_mean            =   1.4063728287801E-03
(PID.TID 0000.0001) %MON dynstat_uvel_sd              =   2.1365388580830E-02
(PID.TID 0000.0001) %MON dynstat_uvel_del2            =   1.2607445786774E-05
(PID.TID 0000.0001) %MON dynstat_vvel_max             =   1.4295781597006E+00
(PID.TID 0000.0001) %MON dynstat_vvel_min             =  -1.0691922641864E+00
(PID.TID 0000.0001) %MON dynstat_vvel_mean            =   1.1863102862928E-03
(PID.TID 0000.0001) %MON dynstat_vvel_sd              =   2.4376106767317E-02
(PID.TID 0000.0001) %MON dynstat_vvel_del2            =   1.3079195994905E-05
(PID.TID 0000.0001) %MON dynstat_wvel_max             =   5.6868143526450E-04
(PID.TID 0000.0001) %MON dynstat_wvel_min             =  -9.8654394645867E-04
(PID.TID 0000.0001) %MON dynstat_wvel_mean            =   3.3826370040107E-10
(PID.TID 0000.0001) %MON dynstat_wvel_sd              =   2.5392341683507E-05
(PID.TID 0000.0001) %MON dynstat_wvel_del2            =   2.2527403264955E-08
(PID.TID 0000.0001) %MON dynstat_theta_max            =   3.2781814571817E+01
(PID.TID 0000.0001) %MON dynstat_theta_min            =  -2.0416092674475E+00
(PID.TID 0000.0001) %MON dynstat_theta_mean           =   3.5907874636346E+00
(PID.TID 0000.0001) %MON dynstat_theta_sd             =   4.4364003784969E+00
(PID.TID 0000.0001) %MON dynstat_theta_del2           =   1.0503188512894E-04
(PID.TID 0000.0001) %MON dynstat_salt_max             =   4.0711386333850E+01
(PID.TID 0000.0001) %MON dynstat_salt_min             =   1.7569044536747E+01
(PID.TID 0000.0001) %MON dynstat_salt_mean            =   3.4725703563675E+01
(PID.TID 0000.0001) %MON dynstat_salt_sd              =   3.7881327548974E-01
(PID.TID 0000.0001) %MON dynstat_salt_del2            =   2.5398103697803E-05
(PID.TID 0000.0001) %MON dynstat_sst_max              =   3.2781814571817E+01
(PID.TID 0000.0001) %MON dynstat_sst_min              =  -1.9608957822403E+00
(PID.TID 0000.0001) %MON dynstat_sst_mean             =   1.8540519784020E+01
(PID.TID 0000.0001) %MON dynstat_sst_sd               =   1.0045387595820E+01
(PID.TID 0000.0001) %MON dynstat_sst_del2             =   9.0575023906822E-04
(PID.TID 0000.0001) %MON dynstat_sss_max              =   3.9748903325426E+01
(PID.TID 0000.0001) %MON dynstat_sss_min              =   1.7569044536747E+01
(PID.TID 0000.0001) %MON dynstat_sss_mean             =   3.4725168267478E+01
(PID.TID 0000.0001) %MON dynstat_sss_sd               =   1.2164217278251E+00
(PID.TID 0000.0001) %MON dynstat_sss_del2             =   3.8833600436676E-04
(PID.TID 0000.0001) %MON forcing_qnet_max             =   9.4653298656807E+02
(PID.TID 0000.0001) %MON forcing_qnet_min             =  -8.2814238335401E+02
(PID.TID 0000.0001) %MON forcing_qnet_mean            =  -1.4410340954533E+01
(PID.TID 0000.0001) %MON forcing_qnet_sd              =   2.5133349314821E+02
(PID.TID 0000.0001) %MON forcing_qnet_del2            =   1.6749737305179E-01
(PID.TID 0000.0001) %MON forcing_qsw_max              =   3.7923809227202E+01
(PID.TID 0000.0001) %MON forcing_qsw_min              =  -9.2294035154984E+02
(PID.TID 0000.0001) %MON forcing_qsw_mean             =  -1.9428475967298E+02
(PID.TID 0000.0001) %MON forcing_qsw_sd               =   2.3198253611941E+02
(PID.TID 0000.0001) %MON forcing_qsw_del2             =   8.9571819696038E-02
(PID.TID 0000.0001) %MON forcing_empmr_max            =   1.7333329784874E-03
(PID.TID 0000.0001) %MON forcing_empmr_min            =  -2.1856396307584E-03
(PID.TID 0000.0001) %MON forcing_empmr_mean           =   7.3496820419989E-06
(PID.TID 0000.0001) %MON forcing_empmr_sd             =   1.0491159463155E-04
(PID.TID 0000.0001) %MON forcing_empmr_del2           =   4.4933513708425E-07
(PID.TID 0000.0001) %MON forcing_fu_max               =   1.4016105532646E+00
(PID.TID 0000.0001) %MON forcing_fu_min               =  -1.2785431786408E+00
(PID.TID 0000.0001) %MON forcing_fu_mean              =   7.6527857157020E-03
(PID.TID 0000.0001) %MON forcing_fu_sd                =   1.2262252417163E-01
(PID.TID 0000.0001) %MON forcing_fu_del2              =   1.1665942464971E-04
(PID.TID 0000.0001) %MON forcing_fv_max               =   1.4354257583618E+00
(PID.TID 0000.0001) %MON forcing_fv_min               =  -1.2138998508453E+00
(PID.TID 0000.0001) %MON forcing_fv_mean              =   2.1937129426136E-03
(PID.TID 0000.0001) %MON forcing_fv_sd                =   1.3430026397908E-01
(PID.TID 0000.0001) %MON forcing_fv_del2              =   1.1103192474407E-04
(PID.TID 0000.0001) %MON trAdv_CFL_u_max              =   5.3893218251908E-02
(PID.TID 0000.0001) %MON trAdv_CFL_v_max              =   6.5282393216755E-02
(PID.TID 0000.0001) %MON trAdv_CFL_w_max              =   1.5581822455877E-01
(PID.TID 0000.0001) %MON advcfl_uvel_max              =   5.0246373059319E-02
(PID.TID 0000.0001) %MON advcfl_vvel_max              =   6.5570420699360E-02
(PID.TID 0000.0001) %MON advcfl_wvel_max              =   1.5880336260698E-01
(PID.TID 0000.0001) %MON advcfl_W_hf_max              =   1.6653713881078E-01
(PID.TID 0000.0001) %MON pe_b_mean                    =   4.1874912865340E-04
(PID.TID 0000.0001) %MON ke_max                       =   1.0256716083708E+00
(PID.TID 0000.0001) %MON ke_mean                      =   5.0826843418314E-04
(PID.TID 0000.0001) %MON ke_vol                       =   1.3349967582877E+18
(PID.TID 0000.0001) %MON vort_r_min                   =  -1.8002336316009E-05
(PID.TID 0000.0001) %MON vort_r_max                   =   2.6556066874950E-05
(PID.TID 0000.0001) %MON vort_a_mean                  =  -1.9727864647440E-05
(PID.TID 0000.0001) %MON vort_a_sd                    =   7.4543223371426E-05
(PID.TID 0000.0001) %MON vort_p_mean                  =  -2.1760543375002E-05
(PID.TID 0000.0001) %MON vort_p_sd                    =   9.7245789856236E-05
(PID.TID 0000.0001) %MON surfExpan_theta_mean         =  -1.8022705649607E-07
(PID.TID 0000.0001) %MON surfExpan_salt_mean          =   5.3568570512940E-09
(PID.TID 0000.0001) // =======================================================
(PID.TID 0000.0001) // End MONITOR dynamic field statistics
(PID.TID 0000.0001) // =======================================================
(PID.TID 0000.0001) // =======================================================
(PID.TID 0000.0001) // Begin MONITOR SEAICE statistics
(PID.TID 0000.0001) // =======================================================
(PID.TID 0000.0001) %MON seaice_tsnumber              =                    88
(PID.TID 0000.0001) %MON seaice_time_sec              =   3.1680000000000E+05
(PID.TID 0000.0001) %MON seaice_uice_max              =   4.0000000000000E-01
(PID.TID 0000.0001) %MON seaice_uice_min              =  -4.0000000000000E-01
(PID.TID 0000.0001) %MON seaice_uice_mean             =   3.8380998749974E-03
(PID.TID 0000.0001) %MON seaice_uice_sd               =   1.9256668755730E-01
(PID.TID 0000.0001) %MON seaice_uice_del2             =   1.9174998082893E-04
(PID.TID 0000.0001) %MON seaice_vice_max              =   4.0000000000000E-01
(PID.TID 0000.0001) %MON seaice_vice_min              =  -4.0000000000000E-01
(PID.TID 0000.0001) %MON seaice_vice_mean             =  -2.8486129021379E-03
(PID.TID 0000.0001) %MON seaice_vice_sd               =   2.0658926174815E-01
(PID.TID 0000.0001) %MON seaice_vice_del2             =   1.9510326638458E-04
(PID.TID 0000.0001) %MON seaice_area_max              =   9.5000000000000E-01
(PID.TID 0000.0001) %MON seaice_area_min              =   0.0000000000000E+00
(PID.TID 0000.0001) %MON seaice_area_mean             =   3.7966276485201E-02
(PID.TID 0000.0001) %MON seaice_area_sd               =   1.7656740722194E-01
(PID.TID 0000.0001) %MON seaice_area_del2             =   2.5562949578780E-04
(PID.TID 0000.0001) %MON seaice_heff_max              =   3.8550115796923E+00
(PID.TID 0000.0001) %MON seaice_heff_min              =   0.0000000000000E+00
(PID.TID 0000.0001) %MON seaice_heff_mean             =   5.3755816203723E-02
(PID.TID 0000.0001) %MON seaice_heff_sd               =   3.1039554671059E-01
(PID.TID 0000.0001) %MON seaice_heff_del2             =   2.9509911019202E-04
(PID.TID 0000.0001) %MON seaice_hsnow_max             =   9.5132715079245E-01
(PID.TID 0000.0001) %MON seaice_hsnow_min             =  -8.4940814083106E-05
(PID.TID 0000.0001) %MON seaice_hsnow_mean            =   5.1775377692295E-03
(PID.TID 0000.0001) %MON seaice_hsnow_sd              =   3.1266583082195E-02
(PID.TID 0000.0001) %MON seaice_hsnow_del2            =   5.0077538658402E-05
(PID.TID 0000.0001) // =======================================================
(PID.TID 0000.0001) // End MONITOR SEAICE statistics
(PID.TID 0000.0001) // =======================================================
(PID.TID 0000.0001) // =======================================================
(PID.TID 0000.0001) // Begin MONITOR EXF statistics
(PID.TID 0000.0001) // =======================================================
(PID.TID 0000.0001) %MON exf_tsnumber                 =                    88
(PID.TID 0000.0001) %MON exf_time_sec                 =   3.1680000000000E+05
(PID.TID 0000.0001) %MON exf_ustress_max              =   1.3608187238375E+00
(PID.TID 0000.0001) %MON exf_ustress_min              =  -9.9990382790565E-01
(PID.TID 0000.0001) %MON exf_ustress_mean             =   8.7215388435125E-03
(PID.TID 0000.0001) %MON exf_ustress_sd               =   1.1701427616459E-01
(PID.TID 0000.0001) %MON exf_ustress_del2             =   1.2235649742507E-04
(PID.TID 0000.0001) %MON exf_vstress_max              =   1.3945869008700E+00
(PID.TID 0000.0001) %MON exf_vstress_min              =  -1.2633327742418E+00
(PID.TID 0000.0001) %MON exf_vstress_mean             =   2.3087896812954E-03
(PID.TID 0000.0001) %MON exf_vstress_sd               =   1.2776073338055E-01
(PID.TID 0000.0001) %MON exf_vstress_del2             =   1.0361503433504E-04
(PID.TID 0000.0001) %MON exf_hflux_max                =   1.3021537960586E+03
(PID.TID 0000.0001) %MON exf_hflux_min                =  -6.7441005653242E+02
(PID.TID 0000.0001) %MON exf_hflux_mean               =   6.2131783898186E+00
(PID.TID 0000.0001) %MON exf_hflux_sd                 =   2.5247826962758E+02
(PID.TID 0000.0001) %MON exf_hflux_del2               =   4.3644699382092E-01
(PID.TID 0000.0001) %MON exf_sflux_max                =   2.6186677236809E-07
(PID.TID 0000.0001) %MON exf_sflux_min                =  -2.1058800496832E-06
(PID.TID 0000.0001) %MON exf_sflux_mean               =   7.2273260431171E-09
(PID.TID 0000.0001) %MON exf_sflux_sd                 =   8.5565236219507E-08
(PID.TID 0000.0001) %MON exf_sflux_del2               =   2.1801264019379E-10
(PID.TID 0000.0001) %MON exf_wspeed_max               =   2.8688522656759E+01
(PID.TID 0000.0001) %MON exf_wspeed_min               =   4.4084108869235E-01
(PID.TID 0000.0001) %MON exf_wspeed_mean              =   7.0825677737466E+00
(PID.TID 0000.0001) %MON exf_wspeed_sd                =   3.3133839933925E+00
(PID.TID 0000.0001) %MON exf_wspeed_del2              =   1.2230134859032E-02
(PID.TID 0000.0001) %MON exf_atemp_max                =   3.0358699264526E+02
(PID.TID 0000.0001) %MON exf_atemp_min                =   2.3033591944377E+02
(PID.TID 0000.0001) %MON exf_atemp_mean               =   2.8917527818367E+02
(PID.TID 0000.0001) %MON exf_atemp_sd                 =   1.2326959197286E+01
(PID.TID 0000.0001) %MON exf_atemp_del2               =   2.6389925048237E-02
(PID.TID 0000.0001) %MON exf_aqh_max                  =   2.2203397316237E-02
(PID.TID 0000.0001) %MON exf_aqh_min                  =   7.6566400821321E-05
(PID.TID 0000.0001) %MON exf_aqh_mean                 =   1.0932851636945E-02
(PID.TID 0000.0001) %MON exf_aqh_sd                   =   5.6676055378564E-03
(PID.TID 0000.0001) %MON exf_aqh_del2                 =   1.4540082151697E-05
(PID.TID 0000.0001) %MON exf_lwflux_max               =   2.2059213256494E+02
(PID.TID 0000.0001) %MON exf_lwflux_min               =  -3.0807364285657E+01
(PID.TID 0000.0001) %MON exf_lwflux_mean              =   4.9231527793130E+01
(PID.TID 0000.0001) %MON exf_lwflux_sd                =   2.8946853387155E+01
(PID.TID 0000.0001) %MON exf_lwflux_del2              =   9.8546892615349E-02
(PID.TID 0000.0001) %MON exf_evap_max                 =   2.6984860467199E-07
(PID.TID 0000.0001) %MON exf_evap_min                 =  -2.6829315547875E-08
(PID.TID 0000.0001) %MON exf_evap_mean                =   4.6691009994035E-08
(PID.TID 0000.0001) %MON exf_evap_sd                  =   3.1266028927946E-08
(PID.TID 0000.0001) %MON exf_evap_del2                =   7.7292754647133E-11
(PID.TID 0000.0001) %MON exf_precip_max               =   1.0456256068399E-06
(PID.TID 0000.0001) %MON exf_precip_min               =  -1.7103118625054E-08
(PID.TID 0000.0001) %MON exf_precip_mean              =   3.6456522312600E-08
(PID.TID 0000.0001) %MON exf_precip_sd                =   7.5985427154256E-08
(PID.TID 0000.0001) %MON exf_precip_del2              =   2.1897955940946E-10
(PID.TID 0000.0001) %MON exf_swflux_max               =   3.6744433366072E+01
(PID.TID 0000.0001) %MON exf_swflux_min               =  -8.0957253672143E+02
(PID.TID 0000.0001) %MON exf_swflux_mean              =  -1.9105692562804E+02
(PID.TID 0000.0001) %MON exf_swflux_sd                =   2.0402955557638E+02
(PID.TID 0000.0001) %MON exf_swflux_del2              =   3.7757067174993E-01
(PID.TID 0000.0001) %MON exf_swdown_max               =   8.7330080668132E+02
(PID.TID 0000.0001) %MON exf_swdown_min               =  -4.0322764472415E+01
(PID.TID 0000.0001) %MON exf_swdown_mean              =   2.0709032269973E+02
(PID.TID 0000.0001) %MON exf_swdown_sd                =   2.2056992443979E+02
(PID.TID 0000.0001) %MON exf_swdown_del2              =   4.0935235943863E-01
(PID.TID 0000.0001) %MON exf_lwdown_max               =   4.6294749450684E+02
(PID.TID 0000.0001) %MON exf_lwdown_min               =   7.9259174346924E+01
(PID.TID 0000.0001) %MON exf_lwdown_mean              =   3.6258210664566E+02
(PID.TID 0000.0001) %MON exf_lwdown_sd                =   6.5926384677629E+01
(PID.TID 0000.0001) %MON exf_lwdown_del2              =   4.8510159137920E-01
(PID.TID 0000.0001) %MON exf_runoff_max               =   2.1600927436427E-06
(PID.TID 0000.0001) %MON exf_runoff_min               =   0.0000000000000E+00
(PID.TID 0000.0001) %MON exf_runoff_mean              =   3.0071616383177E-09
(PID.TID 0000.0001) %MON exf_runoff_sd                =   2.5119059417682E-08
(PID.TID 0000.0001) %MON exf_runoff_del2              =   1.8548840481411E-11
(PID.TID 0000.0001) // =======================================================
(PID.TID 0000.0001) // End MONITOR EXF statistics
(PID.TID 0000.0001) // =======================================================
 SEAICE_LSR: Residual Initial ipass,Uice,Vice=    1  1.41008924E-01  2.28655797E-01
 SEAICE_LSR: Residual FrDrift U_fd,V_fd=  9.24119226E+01  9.63889008E+01
 SEAICE_LSR (ipass=   1) iters,dU,Resid=   158  1.99418540E-04  1.54863943E-03
 SEAICE_LSR (ipass=   1) iters,dV,Resid=   158  9.40643109E-05  1.20943794E-03
 SEAICE_LSR: Residual Initial ipass,Uice,Vice=    2  8.19422081E-01  6.71214056E-01
 SEAICE_LSR: Residual FrDrift U_fd,V_fd=  9.23795341E+01  9.63485528E+01
 SEAICE_LSR (ipass=   2) iters,dU,Resid=    68  1.13629711E-04  1.46175437E-03
 SEAICE_LSR (ipass=   2) iters,dV,Resid=    68  1.89600874E-04  1.55562037E-03
 cg2d: Sum(rhs),rhsMax =   6.27213053172654E+00  3.45254757255179E-01
 cg2d: Sum(rhs),rhsMax =   6.31741203804715E+00  3.46287450366902E-01
(PID.TID 0000.0001)      cg2d_init_res =   2.49175466801171E-01
(PID.TID 0000.0001)      cg2d_iters(min,last) =      -1      92
(PID.TID 0000.0001)      cg2d_last_res =   6.24876025409760E-06
(PID.TID 0000.0001) // =======================================================
(PID.TID 0000.0001) // Begin MONITOR dynamic field statistics
(PID.TID 0000.0001) // =======================================================
(PID.TID 0000.0001) %MON time_tsnumber                =                    90
(PID.TID 0000.0001) %MON time_secondsf                =   3.2400000000000E+05
(PID.TID 0000.0001) %MON dynstat_eta_max              =   1.0786338344038E+00
(PID.TID 0000.0001) %MON dynstat_eta_min              =  -4.0318407834161E+00
(PID.TID 0000.0001) %MON dynstat_eta_mean             =  -3.1974387078200E-03
(PID.TID 0000.0001) %MON dynstat_eta_sd               =   7.3777400529299E-01
(PID.TID 0000.0001) %MON dynstat_eta_del2             =   2.8100018660243E-04
(PID.TID 0000.0001) %MON dynstat_uvel_max             =   7.3374451270384E-01
(PID.TID 0000.0001) %MON dynstat_uvel_min             =  -8.6096660202397E-01
(PID.TID 0000.0001) %MON dynstat_uvel_mean            =   1.4104151863547E-03
(PID.TID 0000.0001) %MON dynstat_uvel_sd              =   2.1362957056212E-02
(PID.TID 0000.0001) %MON dynstat_uvel_del2            =   1.2578291602509E-05
(PID.TID 0000.0001) %MON dynstat_vvel_max             =   1.4401983196937E+00
(PID.TID 0000.0001) %MON dynstat_vvel_min             =  -1.0705169505030E+00
(PID.TID 0000.0001) %MON dynstat_vvel_mean            =   1.1927551801977E-03
(PID.TID 0000.0001) %MON dynstat_vvel_sd              =   2.4396552566408E-02
(PID.TID 0000.0001) %MON dynstat_vvel_del2            =   1.3058227819787E-05
(PID.TID 0000.0001) %MON dynstat_wvel_max             =   5.8618325576612E-04
(PID.TID 0000.0001) %MON dynstat_wvel_min             =  -9.7948664068871E-04
(PID.TID 0000.0001) %MON dynstat_wvel_mean            =   3.2903967445888E-10
(PID.TID 0000.0001) %MON dynstat_wvel_sd              =   2.5300604469933E-05
(PID.TID 0000.0001) %MON dynstat_wvel_del2            =   2.2431100702093E-08
(PID.TID 0000.0001) %MON dynstat_theta_max            =   3.2832768668950E+01
(PID.TID 0000.0001) %MON dynstat_theta_min            =  -2.0416019374765E+00
(PID.TID 0000.0001) %MON dynstat_theta_mean           =   3.5907908335688E+00
(PID.TID 0000.0001) %MON dynstat_theta_sd             =   4.4364000374427E+00
(PID.TID 0000.0001) %MON dynstat_theta_del2           =   1.0495205927549E-04
(PID.TID 0000.0001) %MON dynstat_salt_max             =   4.0711388369337E+01
(PID.TID 0000.0001) %MON dynstat_salt_min             =   1.7570390469368E+01
(PID.TID 0000.0001) %MON dynstat_salt_mean            =   3.4725703994603E+01
(PID.TID 0000.0001) %MON dynstat_salt_sd              =   3.7881103767319E-01
(PID.TID 0000.0001) %MON dynstat_salt_del2            =   2.5377342840238E-05
(PID.TID 0000.0001) %MON dynstat_sst_max              =   3.2832768668950E+01
(PID.TID 0000.0001) %MON dynstat_sst_min              =  -1.9608582749246E+00
(PID.TID 0000.0001) %MON dynstat_sst_mean             =   1.8540640281347E+01
(PID.TID 0000.0001) %MON dynstat_sst_sd               =   1.0044599628366E+01
(PID.TID 0000.0001) %MON dynstat_sst_del2             =   9.0545246984192E-04
(PID.TID 0000.0001) %MON dynstat_sss_max              =   3.9750213814958E+01
(PID.TID 0000.0001) %MON dynstat_sss_min              =   1.7570390469368E+01
(PID.TID 0000.0001) %MON dynstat_sss_mean             =   3.4725268013610E+01
(PID.TID 0000.0001) %MON dynstat_sss_sd               =   1.2164139649716E+00
(PID.TID 0000.0001) %MON dynstat_sss_del2             =   3.8789422844677E-04
(PID.TID 0000.0001) %MON forcing_qnet_max             =   9.5644019993720E+02
(PID.TID 0000.0001) %MON forcing_qnet_min             =  -7.6523056809077E+02
(PID.TID 0000.0001) %MON forcing_qnet_mean            =  -5.2509853343117E+00
(PID.TID 0000.0001) %MON forcing_qnet_sd              =   2.1278367780671E+02
(PID.TID 0000.0001) %MON forcing_qnet_del2            =   1.5300713251576E-01
(PID.TID 0000.0001) %MON forcing_qsw_max              =   2.6099155788579E+01
(PID.TID 0000.0001) %MON forcing_qsw_min              =  -7.3106131496905E+02
(PID.TID 0000.0001) %MON forcing_qsw_mean             =  -1.8510881596227E+02
(PID.TID 0000.0001) %MON forcing_qsw_sd               =   1.8508434435463E+02
(PID.TID 0000.0001) %MON forcing_qsw_del2             =   7.4125647473616E-02
(PID.TID 0000.0001) %MON forcing_empmr_max            =   1.6749020840769E-03
(PID.TID 0000.0001) %MON forcing_empmr_min            =  -2.1131083211464E-03
(PID.TID 0000.0001) %MON forcing_empmr_mean           =   6.5508365587798E-06
(PID.TID 0000.0001) %MON forcing_empmr_sd             =   1.0060150496780E-04
(PID.TID 0000.0001) %MON forcing_empmr_del2           =   4.2968448139679E-07
(PID.TID 0000.0001) %MON forcing_fu_max               =   1.3174535234769E+00
(PID.TID 0000.0001) %MON forcing_fu_min               =  -1.0157396348341E+00
(PID.TID 0000.0001) %MON forcing_fu_mean              =   7.8592863138610E-03
(PID.TID 0000.0001) %MON forcing_fu_sd                =   1.1863644057286E-01
(PID.TID 0000.0001) %MON forcing_fu_del2              =   1.0574379780434E-04
(PID.TID 0000.0001) %MON forcing_fv_max               =   1.3450887600581E+00
(PID.TID 0000.0001) %MON forcing_fv_min               =  -1.2404494285584E+00
(PID.TID 0000.0001) %MON forcing_fv_mean              =   2.1123276128832E-03
(PID.TID 0000.0001) %MON forcing_fv_sd                =   1.3222279774976E-01
(PID.TID 0000.0001) %MON forcing_fv_del2              =   1.0216836016426E-04
(PID.TID 0000.0001) %MON trAdv_CFL_u_max              =   5.3737216712950E-02
(PID.TID 0000.0001) %MON trAdv_CFL_v_max              =   6.6142062509436E-02
(PID.TID 0000.0001) %MON trAdv_CFL_w_max              =   1.5206751487289E-01
(PID.TID 0000.0001) %MON advcfl_uvel_max              =   5.6832653747368E-02
(PID.TID 0000.0001) %MON advcfl_vvel_max              =   6.6395026075594E-02
(PID.TID 0000.0001) %MON advcfl_wvel_max              =   1.5468417137681E-01
(PID.TID 0000.0001) %MON advcfl_W_hf_max              =   1.6146371366381E-01
(PID.TID 0000.0001) %MON pe_b_mean                    =   4.1840267575418E-04
(PID.TID 0000.0001) %MON ke_max                       =   1.0355691215347E+00
(PID.TID 0000.0001) %MON ke_mean                      =   5.0871216098731E-04
(PID.TID 0000.0001) %MON ke_vol                       =   1.3349967404170E+18
(PID.TID 0000.0001) %MON vort_r_min                   =  -1.8662588948658E-05
(PID.TID 0000.0001) %MON vort_r_max                   =   2.7087101653678E-05
(PID.TID 0000.0001) %MON vort_a_mean                  =  -1.9727864647440E-05
(PID.TID 0000.0001) %MON vort_a_sd                    =   7.4543221725244E-05
(PID.TID 0000.0001) %MON vort_p_mean                  =  -2.1760543556595E-05
(PID.TID 0000.0001) %MON vort_p_sd                    =   9.7245867426823E-05
(PID.TID 0000.0001) %MON surfExpan_theta_mean         =  -1.9827500012194E-07
(PID.TID 0000.0001) %MON surfExpan_salt_mean          =   3.3229963113717E-09
(PID.TID 0000.0001) // =======================================================
(PID.TID 0000.0001) // End MONITOR dynamic field statistics
(PID.TID 0000.0001) // =======================================================
(PID.TID 0000.0001) // =======================================================
(PID.TID 0000.0001) // Begin MONITOR SEAICE statistics
(PID.TID 0000.0001) // =======================================================
(PID.TID 0000.0001) %MON seaice_tsnumber              =                    90
(PID.TID 0000.0001) %MON seaice_time_sec              =   3.2400000000000E+05
(PID.TID 0000.0001) %MON seaice_uice_max              =   4.0000000000000E-01
(PID.TID 0000.0001) %MON seaice_uice_min              =  -4.0000000000000E-01
(PID.TID 0000.0001) %MON seaice_uice_mean             =   4.3975789309797E-03
(PID.TID 0000.0001) %MON seaice_uice_sd               =   1.9214980461848E-01
(PID.TID 0000.0001) %MON seaice_uice_del2             =   1.8780808191719E-04
(PID.TID 0000.0001) %MON seaice_vice_max              =   4.0000000000000E-01
(PID.TID 0000.0001) %MON seaice_vice_min              =  -4.0000000000000E-01
(PID.TID 0000.0001) %MON seaice_vice_mean             =  -3.4693662267002E-03
(PID.TID 0000.0001) %MON seaice_vice_sd               =   2.0707413115836E-01
(PID.TID 0000.0001) %MON seaice_vice_del2             =   1.9352890915134E-04
(PID.TID 0000.0001) %MON seaice_area_max              =   9.5000000000000E-01
(PID.TID 0000.0001) %MON seaice_area_min              =   0.0000000000000E+00
(PID.TID 0000.0001) %MON seaice_area_mean             =   3.7942959517959E-02
(PID.TID 0000.0001) %MON seaice_area_sd               =   1.7652563341300E-01
(PID.TID 0000.0001) %MON seaice_area_del2             =   2.5457200300035E-04
(PID.TID 0000.0001) %MON seaice_heff_max              =   3.8659874506457E+00
(PID.TID 0000.0001) %MON seaice_heff_min              =   0.0000000000000E+00
(PID.TID 0000.0001) %MON seaice_heff_mean             =   5.3765893757964E-02
(PID.TID 0000.0001) %MON seaice_heff_sd               =   3.1052867636929E-01
(PID.TID 0000.0001) %MON seaice_heff_del2             =   2.9485153204288E-04
(PID.TID 0000.0001) %MON seaice_hsnow_max             =   9.5061436253569E-01
(PID.TID 0000.0001) %MON seaice_hsnow_min             =  -7.5677111035115E-05
(PID.TID 0000.0001) %MON seaice_hsnow_mean            =   5.1749412920587E-03
(PID.TID 0000.0001) %MON seaice_hsnow_sd              =   3.1252554841242E-02
(PID.TID 0000.0001) %MON seaice_hsnow_del2            =   4.9937860283287E-05
(PID.TID 0000.0001) // =======================================================
(PID.TID 0000.0001) // End MONITOR SEAICE statistics
(PID.TID 0000.0001) // =======================================================
(PID.TID 0000.0001) // =======================================================
(PID.TID 0000.0001) // Begin MONITOR EXF statistics
(PID.TID 0000.0001) // =======================================================
(PID.TID 0000.0001) %MON exf_tsnumber                 =                    90
(PID.TID 0000.0001) %MON exf_time_sec                 =   3.2400000000000E+05
(PID.TID 0000.0001) %MON exf_ustress_max              =   1.3083950281143E+00
(PID.TID 0000.0001) %MON exf_ustress_min              =  -9.1970455646515E-01
(PID.TID 0000.0001) %MON exf_ustress_mean             =   8.9383522731439E-03
(PID.TID 0000.0001) %MON exf_ustress_sd               =   1.1457716416383E-01
(PID.TID 0000.0001) %MON exf_ustress_del2             =   1.1249550332109E-04
(PID.TID 0000.0001) %MON exf_vstress_max              =   1.3064985871315E+00
(PID.TID 0000.0001) %MON exf_vstress_min              =  -1.2668454051018E+00
(PID.TID 0000.0001) %MON exf_vstress_mean             =   2.3209926673889E-03
(PID.TID 0000.0001) %MON exf_vstress_sd               =   1.2706609378872E-01
(PID.TID 0000.0001) %MON exf_vstress_del2             =   9.6354302915850E-05
(PID.TID 0000.0001) %MON exf_hflux_max                =   1.1648488565680E+03
(PID.TID 0000.0001) %MON exf_hflux_min                =  -5.6760636710132E+02
(PID.TID 0000.0001) %MON exf_hflux_mean               =   1.5607723719838E+01
(PID.TID 0000.0001) %MON exf_hflux_sd                 =   2.3671285396307E+02
(PID.TID 0000.0001) %MON exf_hflux_del2               =   4.2239476382360E-01
(PID.TID 0000.0001) %MON exf_sflux_max                =   2.6683787201004E-07
(PID.TID 0000.0001) %MON exf_sflux_min                =  -2.1202391368922E-06
(PID.TID 0000.0001) %MON exf_sflux_mean               =   6.2298864763441E-09
(PID.TID 0000.0001) %MON exf_sflux_sd                 =   8.4387572194659E-08
(PID.TID 0000.0001) %MON exf_sflux_del2               =   1.9980653128361E-10
(PID.TID 0000.0001) %MON exf_wspeed_max               =   2.3449151039124E+01
(PID.TID 0000.0001) %MON exf_wspeed_min               =   4.6683143079281E-01
(PID.TID 0000.0001) %MON exf_wspeed_mean              =   7.0810688687210E+00
(PID.TID 0000.0001) %MON exf_wspeed_sd                =   3.2518954463959E+00
(PID.TID 0000.0001) %MON exf_wspeed_del2              =   1.2110501602555E-02
(PID.TID 0000.0001) %MON exf_atemp_max                =   3.0407333126068E+02
(PID.TID 0000.0001) %MON exf_atemp_min                =   2.2975389328003E+02
(PID.TID 0000.0001) %MON exf_atemp_mean               =   2.8918088074486E+02
(PID.TID 0000.0001) %MON exf_atemp_sd                 =   1.2332251268332E+01
(PID.TID 0000.0001) %MON exf_atemp_del2               =   2.6341596012015E-02
(PID.TID 0000.0001) %MON exf_aqh_max                  =   2.1839191205800E-02
(PID.TID 0000.0001) %MON exf_aqh_min                  =   7.4318144470453E-05
(PID.TID 0000.0001) %MON exf_aqh_mean                 =   1.0925715929819E-02
(PID.TID 0000.0001) %MON exf_aqh_sd                   =   5.6646353183852E-03
(PID.TID 0000.0001) %MON exf_aqh_del2                 =   1.4528927614120E-05
(PID.TID 0000.0001) %MON exf_lwflux_max               =   2.2153320719477E+02
(PID.TID 0000.0001) %MON exf_lwflux_min               =  -3.0032608124525E+01
(PID.TID 0000.0001) %MON exf_lwflux_mean              =   4.9014703865862E+01
(PID.TID 0000.0001) %MON exf_lwflux_sd                =   2.8507803159823E+01
(PID.TID 0000.0001) %MON exf_lwflux_del2              =   9.7505686236585E-02
(PID.TID 0000.0001) %MON exf_evap_max                 =   2.7488981911643E-07
(PID.TID 0000.0001) %MON exf_evap_min                 =  -2.5681307277293E-08
(PID.TID 0000.0001) %MON exf_evap_mean                =   4.6755972038309E-08
(PID.TID 0000.0001) %MON exf_evap_sd                  =   3.0927566210468E-08
(PID.TID 0000.0001) %MON exf_evap_del2                =   7.6349601940929E-11
(PID.TID 0000.0001) %MON exf_precip_max               =   9.1933412704748E-07
(PID.TID 0000.0001) %MON exf_precip_min               =  -1.7179224265362E-08
(PID.TID 0000.0001) %MON exf_precip_mean              =   3.7519828349274E-08
(PID.TID 0000.0001) %MON exf_precip_sd                =   7.4768854291912E-08
(PID.TID 0000.0001) %MON exf_precip_del2              =   2.0087128635846E-10
(PID.TID 0000.0001) %MON exf_swflux_max               =   2.6078388518170E+01
(PID.TID 0000.0001) %MON exf_swflux_min               =  -6.9642350756616E+02
(PID.TID 0000.0001) %MON exf_swflux_mean              =  -1.8166081988761E+02
(PID.TID 0000.0001) %MON exf_swflux_sd                =   1.7957437607954E+02
(PID.TID 0000.0001) %MON exf_swflux_del2              =   3.4862978621667E-01
(PID.TID 0000.0001) %MON exf_swdown_max               =   7.5138970947266E+02
(PID.TID 0000.0001) %MON exf_swdown_min               =  -3.4943487167358E+01
(PID.TID 0000.0001) %MON exf_swdown_mean              =   1.9680793259528E+02
(PID.TID 0000.0001) %MON exf_swdown_sd                =   1.9399659947869E+02
(PID.TID 0000.0001) %MON exf_swdown_del2              =   3.7775431365425E-01
(PID.TID 0000.0001) %MON exf_lwdown_max               =   4.6257682800293E+02
(PID.TID 0000.0001) %MON exf_lwdown_min               =   7.8289028167725E+01
(PID.TID 0000.0001) %MON exf_lwdown_mean              =   3.6280590993472E+02
(PID.TID 0000.0001) %MON exf_lwdown_sd                =   6.5637900848334E+01
(PID.TID 0000.0001) %MON exf_lwdown_del2              =   4.8507137310700E-01
(PID.TID 0000.0001) %MON exf_runoff_max               =   2.1632469024406E-06
(PID.TID 0000.0001) %MON exf_runoff_min               =   0.0000000000000E+00
(PID.TID 0000.0001) %MON exf_runoff_mean              =   3.0062572126915E-09
(PID.TID 0000.0001) %MON exf_runoff_sd                =   2.5148992013489E-08
(PID.TID 0000.0001) %MON exf_runoff_del2              =   1.8560194277901E-11
(PID.TID 0000.0001) // =======================================================
(PID.TID 0000.0001) // End MONITOR EXF statistics
(PID.TID 0000.0001) // =======================================================
 SEAICE_LSR: Residual Initial ipass,Uice,Vice=    1  1.34354478E-01  2.27121113E-01
 SEAICE_LSR: Residual FrDrift U_fd,V_fd=  9.04565798E+01  9.72052386E+01
 SEAICE_LSR (ipass=   1) iters,dU,Resid=   132  1.96653644E-04  1.40815958E-03
 SEAICE_LSR (ipass=   1) iters,dV,Resid=   132  1.87073017E-04  1.30754807E-03
 SEAICE_LSR: Residual Initial ipass,Uice,Vice=    2  5.79344763E-01  6.78219520E-01
 SEAICE_LSR: Residual FrDrift U_fd,V_fd=  9.04501261E+01  9.71719059E+01
 SEAICE_LSR (ipass=   2) iters,dU,Resid=    68  8.06769195E-05  1.39914735E-03
 SEAICE_LSR (ipass=   2) iters,dV,Resid=    68  1.91702410E-04  1.47292349E-03
 cg2d: Sum(rhs),rhsMax =   6.36037583370460E+00  3.48679736688013E-01
 cg2d: Sum(rhs),rhsMax =   6.40118955170023E+00  3.51382712137647E-01
(PID.TID 0000.0001)      cg2d_init_res =   2.55445013884699E-01
(PID.TID 0000.0001)      cg2d_iters(min,last) =      -1      92
(PID.TID 0000.0001)      cg2d_last_res =   6.39669623927168E-06
(PID.TID 0000.0001) // =======================================================
(PID.TID 0000.0001) // Begin MONITOR dynamic field statistics
(PID.TID 0000.0001) // =======================================================
(PID.TID 0000.0001) %MON time_tsnumber                =                    92
(PID.TID 0000.0001) %MON time_secondsf                =   3.3120000000000E+05
(PID.TID 0000.0001) %MON dynstat_eta_max              =   1.0770467469423E+00
(PID.TID 0000.0001) %MON dynstat_eta_min              =  -4.0246354743579E+00
(PID.TID 0000.0001) %MON dynstat_eta_mean             =  -3.2398411130116E-03
(PID.TID 0000.0001) %MON dynstat_eta_sd               =   7.3750290730077E-01
(PID.TID 0000.0001) %MON dynstat_eta_del2             =   2.8073072655593E-04
(PID.TID 0000.0001) %MON dynstat_uvel_max             =   6.6625117699268E-01
(PID.TID 0000.0001) %MON dynstat_uvel_min             =  -8.5926289256522E-01
(PID.TID 0000.0001) %MON dynstat_uvel_mean            =   1.4139387933615E-03
(PID.TID 0000.0001) %MON dynstat_uvel_sd              =   2.1344171518186E-02
(PID.TID 0000.0001) %MON dynstat_uvel_del2            =   1.2560052994512E-05
(PID.TID 0000.0001) %MON dynstat_vvel_max             =   1.4466271639098E+00
(PID.TID 0000.0001) %MON dynstat_vvel_min             =  -1.0702336682777E+00
(PID.TID 0000.0001) %MON dynstat_vvel_mean            =   1.1948478094282E-03
(PID.TID 0000.0001) %MON dynstat_vvel_sd              =   2.4424151696886E-02
(PID.TID 0000.0001) %MON dynstat_vvel_del2            =   1.3033604144686E-05
(PID.TID 0000.0001) %MON dynstat_wvel_max             =   6.0156245291536E-04
(PID.TID 0000.0001) %MON dynstat_wvel_min             =  -9.8632806616248E-04
(PID.TID 0000.0001) %MON dynstat_wvel_mean            =   1.6370796911109E-09
(PID.TID 0000.0001) %MON dynstat_wvel_sd              =   2.5210193310829E-05
(PID.TID 0000.0001) %MON dynstat_wvel_del2            =   2.2415438582449E-08
(PID.TID 0000.0001) %MON dynstat_theta_max            =   3.2856096918565E+01
(PID.TID 0000.0001) %MON dynstat_theta_min            =  -2.0415899168290E+00
(PID.TID 0000.0001) %MON dynstat_theta_mean           =   3.5907899210063E+00
(PID.TID 0000.0001) %MON dynstat_theta_sd             =   4.4363744326794E+00
(PID.TID 0000.0001) %MON dynstat_theta_del2           =   1.0485418595968E-04
(PID.TID 0000.0001) %MON dynstat_salt_max             =   4.0711391165777E+01
(PID.TID 0000.0001) %MON dynstat_salt_min             =   1.7571372599732E+01
(PID.TID 0000.0001) %MON dynstat_salt_mean            =   3.4725704382512E+01
(PID.TID 0000.0001) %MON dynstat_salt_sd              =   3.7880875528284E-01
(PID.TID 0000.0001) %MON dynstat_salt_del2            =   2.5356536502163E-05
(PID.TID 0000.0001) %MON dynstat_sst_max              =   3.2856096918565E+01
(PID.TID 0000.0001) %MON dynstat_sst_min              =  -1.9608006175857E+00
(PID.TID 0000.0001) %MON dynstat_sst_mean             =   1.8540474706038E+01
(PID.TID 0000.0001) %MON dynstat_sst_sd               =   1.0042877657783E+01
(PID.TID 0000.0001) %MON dynstat_sst_del2             =   9.0336849455490E-04
(PID.TID 0000.0001) %MON dynstat_sss_max              =   3.9751475551436E+01
(PID.TID 0000.0001) %MON dynstat_sss_min              =   1.7571372599732E+01
(PID.TID 0000.0001) %MON dynstat_sss_mean             =   3.4725350101171E+01
(PID.TID 0000.0001) %MON dynstat_sss_sd               =   1.2163760336749E+00
(PID.TID 0000.0001) %MON dynstat_sss_del2             =   3.8724984879410E-04
(PID.TID 0000.0001) %MON forcing_qnet_max             =   9.8204905122271E+02
(PID.TID 0000.0001) %MON forcing_qnet_min             =  -9.7759601699993E+02
(PID.TID 0000.0001) %MON forcing_qnet_mean            =   3.8913267124208E+00
(PID.TID 0000.0001) %MON forcing_qnet_sd              =   2.2089556397527E+02
(PID.TID 0000.0001) %MON forcing_qnet_del2            =   1.5339513144213E-01
(PID.TID 0000.0001) %MON forcing_qsw_max              =   2.6057620980549E+01
(PID.TID 0000.0001) %MON forcing_qsw_min              =  -7.1233556323812E+02
(PID.TID 0000.0001) %MON forcing_qsw_mean             =  -1.7593012739087E+02
(PID.TID 0000.0001) %MON forcing_qsw_sd               =   1.8811922394891E+02
(PID.TID 0000.0001) %MON forcing_qsw_del2             =   6.9643428726856E-02
(PID.TID 0000.0001) %MON forcing_empmr_max            =   2.3094345386644E-03
(PID.TID 0000.0001) %MON forcing_empmr_min            =  -2.1272787607704E-03
(PID.TID 0000.0001) %MON forcing_empmr_mean           =   5.9044854659839E-06
(PID.TID 0000.0001) %MON forcing_empmr_sd             =   1.0195468592587E-04
(PID.TID 0000.0001) %MON forcing_empmr_del2           =   4.3442755284455E-07
(PID.TID 0000.0001) %MON forcing_fu_max               =   1.3328048785528E+00
(PID.TID 0000.0001) %MON forcing_fu_min               =  -9.0921329458555E-01
(PID.TID 0000.0001) %MON forcing_fu_mean              =   8.0737291175790E-03
(PID.TID 0000.0001) %MON forcing_fu_sd                =   1.1854557345656E-01
(PID.TID 0000.0001) %MON forcing_fu_del2              =   1.0701325282599E-04
(PID.TID 0000.0001) %MON forcing_fv_max               =   1.2595360875130E+00
(PID.TID 0000.0001) %MON forcing_fv_min               =  -1.2669990062714E+00
(PID.TID 0000.0001) %MON forcing_fv_mean              =   2.0202158164634E-03
(PID.TID 0000.0001) %MON forcing_fv_sd                =   1.3341558846661E-01
(PID.TID 0000.0001) %MON forcing_fv_del2              =   1.0347403186402E-04
(PID.TID 0000.0001) %MON trAdv_CFL_u_max              =   5.8462138431962E-02
(PID.TID 0000.0001) %MON trAdv_CFL_v_max              =   6.7001365125283E-02
(PID.TID 0000.0001) %MON trAdv_CFL_w_max              =   1.5318118088239E-01
(PID.TID 0000.0001) %MON advcfl_uvel_max              =   6.3967689393713E-02
(PID.TID 0000.0001) %MON advcfl_vvel_max              =   6.7216746238841E-02
(PID.TID 0000.0001) %MON advcfl_wvel_max              =   1.5861670103047E-01
(PID.TID 0000.0001) %MON advcfl_W_hf_max              =   1.6037507972963E-01
(PID.TID 0000.0001) %MON pe_b_mean                    =   4.1806990735448E-04
(PID.TID 0000.0001) %MON ke_max                       =   1.0413574238878E+00
(PID.TID 0000.0001) %MON ke_mean                      =   5.0898239893910E-04
(PID.TID 0000.0001) %MON ke_vol                       =   1.3349967244268E+18
(PID.TID 0000.0001) %MON vort_r_min                   =  -1.9424447621110E-05
(PID.TID 0000.0001) %MON vort_r_max                   =   2.7682438725430E-05
(PID.TID 0000.0001) %MON vort_a_mean                  =  -1.9727864647440E-05
(PID.TID 0000.0001) %MON vort_a_sd                    =   7.4543218932798E-05
(PID.TID 0000.0001) %MON vort_p_mean                  =  -2.1760543736280E-05
(PID.TID 0000.0001) %MON vort_p_sd                    =   9.7245936206081E-05
(PID.TID 0000.0001) %MON surfExpan_theta_mean         =  -1.9250158462383E-07
(PID.TID 0000.0001) %MON surfExpan_salt_mean          =  -1.7564524664764E-09
(PID.TID 0000.0001) // =======================================================
(PID.TID 0000.0001) // End MONITOR dynamic field statistics
(PID.TID 0000.0001) // =======================================================
(PID.TID 0000.0001) // =======================================================
(PID.TID 0000.0001) // Begin MONITOR SEAICE statistics
(PID.TID 0000.0001) // =======================================================
(PID.TID 0000.0001) %MON seaice_tsnumber              =                    92
(PID.TID 0000.0001) %MON seaice_time_sec              =   3.3120000000000E+05
(PID.TID 0000.0001) %MON seaice_uice_max              =   4.0000000000000E-01
(PID.TID 0000.0001) %MON seaice_uice_min              =  -4.0000000000000E-01
(PID.TID 0000.0001) %MON seaice_uice_mean             =   4.5809898877109E-03
(PID.TID 0000.0001) %MON seaice_uice_sd               =   1.9175496016025E-01
(PID.TID 0000.0001) %MON seaice_uice_del2             =   1.8426168452971E-04
(PID.TID 0000.0001) %MON seaice_vice_max              =   4.0000000000000E-01
(PID.TID 0000.0001) %MON seaice_vice_min              =  -4.0000000000000E-01
(PID.TID 0000.0001) %MON seaice_vice_mean             =  -3.9701861182236E-03
(PID.TID 0000.0001) %MON seaice_vice_sd               =   2.0769654679715E-01
(PID.TID 0000.0001) %MON seaice_vice_del2             =   1.9315235288710E-04
(PID.TID 0000.0001) %MON seaice_area_max              =   9.5000000000000E-01
(PID.TID 0000.0001) %MON seaice_area_min              =   0.0000000000000E+00
(PID.TID 0000.0001) %MON seaice_area_mean             =   3.7924362023415E-02
(PID.TID 0000.0001) %MON seaice_area_sd               =   1.7649937752444E-01
(PID.TID 0000.0001) %MON seaice_area_del2             =   2.5443794767219E-04
(PID.TID 0000.0001) %MON seaice_heff_max              =   3.9010569684814E+00
(PID.TID 0000.0001) %MON seaice_heff_min              =   0.0000000000000E+00
(PID.TID 0000.0001) %MON seaice_heff_mean             =   5.3777903631387E-02
(PID.TID 0000.0001) %MON seaice_heff_sd               =   3.1066369548604E-01
(PID.TID 0000.0001) %MON seaice_heff_del2             =   2.9481633995857E-04
(PID.TID 0000.0001) %MON seaice_hsnow_max             =   9.4990763705108E-01
(PID.TID 0000.0001) %MON seaice_hsnow_min             =  -6.6413508199949E-05
(PID.TID 0000.0001) %MON seaice_hsnow_mean            =   5.1743493705418E-03
(PID.TID 0000.0001) %MON seaice_hsnow_sd              =   3.1246791285499E-02
(PID.TID 0000.0001) %MON seaice_hsnow_del2            =   4.9905098090268E-05
(PID.TID 0000.0001) // =======================================================
(PID.TID 0000.0001) // End MONITOR SEAICE statistics
(PID.TID 0000.0001) // =======================================================
(PID.TID 0000.0001) // =======================================================
(PID.TID 0000.0001) // Begin MONITOR EXF statistics
(PID.TID 0000.0001) // =======================================================
(PID.TID 0000.0001) %MON exf_tsnumber                 =                    92
(PID.TID 0000.0001) %MON exf_time_sec                 =   3.3120000000000E+05
(PID.TID 0000.0001) %MON exf_ustress_max              =   1.4020838936170E+00
(PID.TID 0000.0001) %MON exf_ustress_min              =  -9.7759013374647E-01
(PID.TID 0000.0001) %MON exf_ustress_mean             =   9.1551657027752E-03
(PID.TID 0000.0001) %MON exf_ustress_sd               =   1.1619574744904E-01
(PID.TID 0000.0001) %MON exf_ustress_del2             =   1.1666565665043E-04
(PID.TID 0000.0001) %MON exf_vstress_max              =   1.4019630352656E+00
(PID.TID 0000.0001) %MON exf_vstress_min              =  -1.2972389658292E+00
(PID.TID 0000.0001) %MON exf_vstress_mean             =   2.3331956534824E-03
(PID.TID 0000.0001) %MON exf_vstress_sd               =   1.2977113430377E-01
(PID.TID 0000.0001) %MON exf_vstress_del2             =   1.0243141021748E-04
(PID.TID 0000.0001) %MON exf_hflux_max                =   1.3177135826689E+03
(PID.TID 0000.0001) %MON exf_hflux_min                =  -6.6561172288919E+02
(PID.TID 0000.0001) %MON exf_hflux_mean               =   2.5073889320233E+01
(PID.TID 0000.0001) %MON exf_hflux_sd                 =   2.6407705703060E+02
(PID.TID 0000.0001) %MON exf_hflux_del2               =   4.5533506845119E-01
(PID.TID 0000.0001) %MON exf_sflux_max                =   2.7267587923857E-07
(PID.TID 0000.0001) %MON exf_sflux_min                =  -2.1342326411052E-06
(PID.TID 0000.0001) %MON exf_sflux_mean               =   5.2174067911233E-09
(PID.TID 0000.0001) %MON exf_sflux_sd                 =   8.9655423448519E-08
(PID.TID 0000.0001) %MON exf_sflux_del2               =   2.2208810671592E-10
(PID.TID 0000.0001) %MON exf_wspeed_max               =   2.4437941551208E+01
(PID.TID 0000.0001) %MON exf_wspeed_min               =   3.8184409836928E-01
(PID.TID 0000.0001) %MON exf_wspeed_mean              =   7.0795699636954E+00
(PID.TID 0000.0001) %MON exf_wspeed_sd                =   3.2920061899062E+00
(PID.TID 0000.0001) %MON exf_wspeed_del2              =   1.2237413924177E-02
(PID.TID 0000.0001) %MON exf_atemp_max                =   3.0489930032094E+02
(PID.TID 0000.0001) %MON exf_atemp_min                =   2.2917186711629E+02
(PID.TID 0000.0001) %MON exf_atemp_mean               =   2.8918648330605E+02
(PID.TID 0000.0001) %MON exf_atemp_sd                 =   1.2345942632939E+01
(PID.TID 0000.0001) %MON exf_atemp_del2               =   2.6315595893671E-02
(PID.TID 0000.0001) %MON exf_aqh_max                  =   2.1989768681427E-02
(PID.TID 0000.0001) %MON exf_aqh_min                  =   7.2069888119586E-05
(PID.TID 0000.0001) %MON exf_aqh_mean                 =   1.0918580222694E-02
(PID.TID 0000.0001) %MON exf_aqh_sd                   =   5.6710273765843E-03
(PID.TID 0000.0001) %MON exf_aqh_del2                 =   1.4546166804846E-05
(PID.TID 0000.0001) %MON exf_lwflux_max               =   2.2247427971314E+02
(PID.TID 0000.0001) %MON exf_lwflux_min               =  -2.9276897088912E+01
(PID.TID 0000.0001) %MON exf_lwflux_mean              =   4.8795790826309E+01
(PID.TID 0000.0001) %MON exf_lwflux_sd                =   2.8724857705665E+01
(PID.TID 0000.0001) %MON exf_lwflux_del2              =   9.7777556477749E-02
(PID.TID 0000.0001) %MON exf_evap_max                 =   2.8076496061442E-07
(PID.TID 0000.0001) %MON exf_evap_min                 =  -2.8813648895604E-08
(PID.TID 0000.0001) %MON exf_evap_mean                =   4.6805893964136E-08
(PID.TID 0000.0001) %MON exf_evap_sd                  =   3.1288055506810E-08
(PID.TID 0000.0001) %MON exf_evap_del2                =   7.7365496494384E-11
(PID.TID 0000.0001) %MON exf_precip_max               =   1.0633492877332E-06
(PID.TID 0000.0001) %MON exf_precip_min               =  -1.7255329905671E-08
(PID.TID 0000.0001) %MON exf_precip_mean              =   3.8583134385948E-08
(PID.TID 0000.0001) %MON exf_precip_sd                =   8.0408116043764E-08
(PID.TID 0000.0001) %MON exf_precip_del2              =   2.2241872053558E-10
(PID.TID 0000.0001) %MON exf_swflux_max               =   2.6036853175716E+01
(PID.TID 0000.0001) %MON exf_swflux_min               =  -8.1343104897049E+02
(PID.TID 0000.0001) %MON exf_swflux_mean              =  -1.7226455423582E+02
(PID.TID 0000.0001) %MON exf_swflux_sd                =   2.0902424535664E+02
(PID.TID 0000.0001) %MON exf_swflux_del2              =   3.7212131976086E-01
(PID.TID 0000.0001) %MON exf_swdown_max               =   8.7814816792806E+02
(PID.TID 0000.0001) %MON exf_swdown_min               =  -3.4916140238444E+01
(PID.TID 0000.0001) %MON exf_swdown_mean              =   1.8652554249083E+02
(PID.TID 0000.0001) %MON exf_swdown_sd                =   2.2588097745147E+02
(PID.TID 0000.0001) %MON exf_swdown_del2              =   4.0305849402613E-01
(PID.TID 0000.0001) %MON exf_lwdown_max               =   4.6602693176270E+02
(PID.TID 0000.0001) %MON exf_lwdown_min               =   7.7318881988525E+01
(PID.TID 0000.0001) %MON exf_lwdown_mean              =   3.6302971322377E+02
(PID.TID 0000.0001) %MON exf_lwdown_sd                =   6.5653611002327E+01
(PID.TID 0000.0001) %MON exf_lwdown_del2              =   4.8532331706123E-01
(PID.TID 0000.0001) %MON exf_runoff_max               =   2.1664010612386E-06
(PID.TID 0000.0001) %MON exf_runoff_min               =   0.0000000000000E+00
(PID.TID 0000.0001) %MON exf_runoff_mean              =   3.0053527870652E-09
(PID.TID 0000.0001) %MON exf_runoff_sd                =   2.5178940444388E-08
(PID.TID 0000.0001) %MON exf_runoff_del2              =   1.8571571484369E-11
(PID.TID 0000.0001) // =======================================================
(PID.TID 0000.0001) // End MONITOR EXF statistics
(PID.TID 0000.0001) // =======================================================
 SEAICE_LSR: Residual Initial ipass,Uice,Vice=    1  1.37722042E-01  2.30935226E-01
 SEAICE_LSR: Residual FrDrift U_fd,V_fd=  8.91380657E+01  9.86925796E+01
 SEAICE_LSR (ipass=   1) iters,dU,Resid=   144  1.93884821E-04  1.34154870E-03
 SEAICE_LSR (ipass=   1) iters,dV,Resid=   144  1.54883517E-04  1.17894769E-03
 SEAICE_LSR: Residual Initial ipass,Uice,Vice=    2  4.59261073E-01  9.23728429E-01
 SEAICE_LSR: Residual FrDrift U_fd,V_fd=  8.91263109E+01  9.86782554E+01
 SEAICE_LSR (ipass=   2) iters,dU,Resid=    68  7.48309831E-05  1.50840218E-03
 SEAICE_LSR (ipass=   2) iters,dV,Resid=    68  1.88751184E-04  1.30701170E-03
 cg2d: Sum(rhs),rhsMax =   6.43949543543409E+00  3.54161871625564E-01
 cg2d: Sum(rhs),rhsMax =   6.47497068458383E+00  3.56663057805392E-01
(PID.TID 0000.0001)      cg2d_init_res =   2.57564346186149E-01
(PID.TID 0000.0001)      cg2d_iters(min,last) =      -1      92
(PID.TID 0000.0001)      cg2d_last_res =   6.45816109532601E-06
(PID.TID 0000.0001) // =======================================================
(PID.TID 0000.0001) // Begin MONITOR dynamic field statistics
(PID.TID 0000.0001) // =======================================================
(PID.TID 0000.0001) %MON time_tsnumber                =                    94
(PID.TID 0000.0001) %MON time_secondsf                =   3.3840000000000E+05
(PID.TID 0000.0001) %MON dynstat_eta_max              =   1.0761116702478E+00
(PID.TID 0000.0001) %MON dynstat_eta_min              =  -4.0175474348852E+00
(PID.TID 0000.0001) %MON dynstat_eta_mean             =  -3.2771840390022E-03
(PID.TID 0000.0001) %MON dynstat_eta_sd               =   7.3723306275210E-01
(PID.TID 0000.0001) %MON dynstat_eta_del2             =   2.8071526589587E-04
(PID.TID 0000.0001) %MON dynstat_uvel_max             =   6.8237005747403E-01
(PID.TID 0000.0001) %MON dynstat_uvel_min             =  -8.5748903523537E-01
(PID.TID 0000.0001) %MON dynstat_uvel_mean            =   1.4170853625599E-03
(PID.TID 0000.0001) %MON dynstat_uvel_sd              =   2.1323974576941E-02
(PID.TID 0000.0001) %MON dynstat_uvel_del2            =   1.2575456053613E-05
(PID.TID 0000.0001) %MON dynstat_vvel_max             =   1.4492865549534E+00
(PID.TID 0000.0001) %MON dynstat_vvel_min             =  -1.0692382460368E+00
(PID.TID 0000.0001) %MON dynstat_vvel_mean            =   1.1917649407274E-03
(PID.TID 0000.0001) %MON dynstat_vvel_sd              =   2.4458985768887E-02
(PID.TID 0000.0001) %MON dynstat_vvel_del2            =   1.3012865961935E-05
(PID.TID 0000.0001) %MON dynstat_wvel_max             =   6.1314120769271E-04
(PID.TID 0000.0001) %MON dynstat_wvel_min             =  -9.9938397196377E-04
(PID.TID 0000.0001) %MON dynstat_wvel_mean            =   2.3266118410508E-09
(PID.TID 0000.0001) %MON dynstat_wvel_sd              =   2.5043596206363E-05
(PID.TID 0000.0001) %MON dynstat_wvel_del2            =   2.2442925779581E-08
(PID.TID 0000.0001) %MON dynstat_theta_max            =   3.2852596662831E+01
(PID.TID 0000.0001) %MON dynstat_theta_min            =  -2.0415727584535E+00
(PID.TID 0000.0001) %MON dynstat_theta_mean           =   3.5907847257615E+00
(PID.TID 0000.0001) %MON dynstat_theta_sd             =   4.4363235947661E+00
(PID.TID 0000.0001) %MON dynstat_theta_del2           =   1.0474037307493E-04
(PID.TID 0000.0001) %MON dynstat_salt_max             =   4.0711394738143E+01
(PID.TID 0000.0001) %MON dynstat_salt_min             =   1.7571990841658E+01
(PID.TID 0000.0001) %MON dynstat_salt_mean            =   3.4725704716673E+01
(PID.TID 0000.0001) %MON dynstat_salt_sd              =   3.7880644202356E-01
(PID.TID 0000.0001) %MON dynstat_salt_del2            =   2.5337768483719E-05
(PID.TID 0000.0001) %MON dynstat_sst_max              =   3.2852596662831E+01
(PID.TID 0000.0001) %MON dynstat_sst_min              =  -1.9608309815009E+00
(PID.TID 0000.0001) %MON dynstat_sst_mean             =   1.8540612451107E+01
(PID.TID 0000.0001) %MON dynstat_sst_sd               =   1.0040759213390E+01
(PID.TID 0000.0001) %MON dynstat_sst_del2             =   8.9940417233068E-04
(PID.TID 0000.0001) %MON dynstat_sss_max              =   3.9752663529274E+01
(PID.TID 0000.0001) %MON dynstat_sss_min              =   1.7571990841658E+01
(PID.TID 0000.0001) %MON dynstat_sss_mean             =   3.4725444215480E+01
(PID.TID 0000.0001) %MON dynstat_sss_sd               =   1.2163167019747E+00
(PID.TID 0000.0001) %MON dynstat_sss_del2             =   3.8641883822516E-04
(PID.TID 0000.0001) %MON forcing_qnet_max             =   1.1292843682371E+03
(PID.TID 0000.0001) %MON forcing_qnet_min             =  -9.0478180163018E+02
(PID.TID 0000.0001) %MON forcing_qnet_mean            =   1.3083958525417E+01
(PID.TID 0000.0001) %MON forcing_qnet_sd              =   2.7088530026994E+02
(PID.TID 0000.0001) %MON forcing_qnet_del2            =   1.6473060984543E-01
(PID.TID 0000.0001) %MON forcing_qsw_max              =   2.6016085103669E+01
(PID.TID 0000.0001) %MON forcing_qsw_min              =  -9.1577776103855E+02
(PID.TID 0000.0001) %MON forcing_qsw_mean             =  -1.6674946598185E+02
(PID.TID 0000.0001) %MON forcing_qsw_sd               =   2.3919689507303E+02
(PID.TID 0000.0001) %MON forcing_qsw_del2             =   7.8017977831499E-02
(PID.TID 0000.0001) %MON forcing_empmr_max            =   2.2715922097202E-03
(PID.TID 0000.0001) %MON forcing_empmr_min            =  -2.1411057093188E-03
(PID.TID 0000.0001) %MON forcing_empmr_mean           =   5.1321737712311E-06
(PID.TID 0000.0001) %MON forcing_empmr_sd             =   1.0911626608612E-04
(PID.TID 0000.0001) %MON forcing_empmr_del2           =   4.5315200008601E-07
(PID.TID 0000.0001) %MON forcing_fu_max               =   1.4476751089096E+00
(PID.TID 0000.0001) %MON forcing_fu_min               =  -1.2202092394229E+00
(PID.TID 0000.0001) %MON forcing_fu_mean              =   8.2931908090677E-03
(PID.TID 0000.0001) %MON forcing_fu_sd                =   1.2235310905935E-01
(PID.TID 0000.0001) %MON forcing_fu_del2              =   1.2101600774102E-04
(PID.TID 0000.0001) %MON forcing_fv_max               =   1.5562078356743E+00
(PID.TID 0000.0001) %MON forcing_fv_min               =  -1.3119935768416E+00
(PID.TID 0000.0001) %MON forcing_fv_mean              =   1.9341680830856E-03
(PID.TID 0000.0001) %MON forcing_fv_sd                =   1.3777209593330E-01
(PID.TID 0000.0001) %MON forcing_fv_del2              =   1.1522544359860E-04
(PID.TID 0000.0001) %MON trAdv_CFL_u_max              =   6.4305479380520E-02
(PID.TID 0000.0001) %MON trAdv_CFL_v_max              =   6.7837185971985E-02
(PID.TID 0000.0001) %MON trAdv_CFL_w_max              =   1.5769612892893E-01
(PID.TID 0000.0001) %MON advcfl_uvel_max              =   6.9911068295248E-02
(PID.TID 0000.0001) %MON advcfl_vvel_max              =   6.8016775340992E-02
(PID.TID 0000.0001) %MON advcfl_wvel_max              =   1.6555099073127E-01
(PID.TID 0000.0001) %MON advcfl_W_hf_max              =   1.6738916722846E-01
(PID.TID 0000.0001) %MON pe_b_mean                    =   4.1775502968893E-04
(PID.TID 0000.0001) %MON ke_max                       =   1.0459530541688E+00
(PID.TID 0000.0001) %MON ke_mean                      =   5.0938887573086E-04
(PID.TID 0000.0001) %MON ke_vol                       =   1.3349967100902E+18
(PID.TID 0000.0001) %MON vort_r_min                   =  -2.0166672584728E-05
(PID.TID 0000.0001) %MON vort_r_max                   =   2.8314558919575E-05
(PID.TID 0000.0001) %MON vort_a_mean                  =  -1.9727864647440E-05
(PID.TID 0000.0001) %MON vort_a_sd                    =   7.4543215586440E-05
(PID.TID 0000.0001) %MON vort_p_mean                  =  -2.1760543918934E-05
(PID.TID 0000.0001) %MON vort_p_sd                    =   9.7246009185981E-05
(PID.TID 0000.0001) %MON surfExpan_theta_mean         =  -1.7837230036048E-07
(PID.TID 0000.0001) %MON surfExpan_salt_mean          =  -2.0883597775329E-09
(PID.TID 0000.0001) // =======================================================
(PID.TID 0000.0001) // End MONITOR dynamic field statistics
(PID.TID 0000.0001) // =======================================================
(PID.TID 0000.0001) // =======================================================
(PID.TID 0000.0001) // Begin MONITOR SEAICE statistics
(PID.TID 0000.0001) // =======================================================
(PID.TID 0000.0001) %MON seaice_tsnumber              =                    94
(PID.TID 0000.0001) %MON seaice_time_sec              =   3.3840000000000E+05
(PID.TID 0000.0001) %MON seaice_uice_max              =   4.0000000000000E-01
(PID.TID 0000.0001) %MON seaice_uice_min              =  -4.0000000000000E-01
(PID.TID 0000.0001) %MON seaice_uice_mean             =   4.0940831386642E-03
(PID.TID 0000.0001) %MON seaice_uice_sd               =   1.9166963313974E-01
(PID.TID 0000.0001) %MON seaice_uice_del2             =   1.8733499209357E-04
(PID.TID 0000.0001) %MON seaice_vice_max              =   4.0000000000000E-01
(PID.TID 0000.0001) %MON seaice_vice_min              =  -4.0000000000000E-01
(PID.TID 0000.0001) %MON seaice_vice_mean             =  -4.8490219293843E-03
(PID.TID 0000.0001) %MON seaice_vice_sd               =   2.0905588127256E-01
(PID.TID 0000.0001) %MON seaice_vice_del2             =   1.9611501296013E-04
(PID.TID 0000.0001) %MON seaice_area_max              =   9.5000000000000E-01
(PID.TID 0000.0001) %MON seaice_area_min              =   0.0000000000000E+00
(PID.TID 0000.0001) %MON seaice_area_mean             =   3.7918672847430E-02
(PID.TID 0000.0001) %MON seaice_area_sd               =   1.7649518882525E-01
(PID.TID 0000.0001) %MON seaice_area_del2             =   2.5446070506055E-04
(PID.TID 0000.0001) %MON seaice_heff_max              =   3.9364812540910E+00
(PID.TID 0000.0001) %MON seaice_heff_min              =   0.0000000000000E+00
(PID.TID 0000.0001) %MON seaice_heff_mean             =   5.3792211062575E-02
(PID.TID 0000.0001) %MON seaice_heff_sd               =   3.1080150351611E-01
(PID.TID 0000.0001) %MON seaice_heff_del2             =   2.9501211701794E-04
(PID.TID 0000.0001) %MON seaice_hsnow_max             =   9.4920708520893E-01
(PID.TID 0000.0001) %MON seaice_hsnow_min             =  -5.7149980020911E-05
(PID.TID 0000.0001) %MON seaice_hsnow_mean            =   5.1741342312031E-03
(PID.TID 0000.0001) %MON seaice_hsnow_sd              =   3.1242236107118E-02
(PID.TID 0000.0001) %MON seaice_hsnow_del2            =   4.9924250527406E-05
(PID.TID 0000.0001) // =======================================================
(PID.TID 0000.0001) // End MONITOR SEAICE statistics
(PID.TID 0000.0001) // =======================================================
(PID.TID 0000.0001) // =======================================================
(PID.TID 0000.0001) // Begin MONITOR EXF statistics
(PID.TID 0000.0001) // =======================================================
(PID.TID 0000.0001) %MON exf_tsnumber                 =                    94
(PID.TID 0000.0001) %MON exf_time_sec                 =   3.3840000000000E+05
(PID.TID 0000.0001) %MON exf_ustress_max              =   1.4682401220004E+00
(PID.TID 0000.0001) %MON exf_ustress_min              =  -1.0175748070081E+00
(PID.TID 0000.0001) %MON exf_ustress_mean             =   9.4158182373902E-03
(PID.TID 0000.0001) %MON exf_ustress_sd               =   1.1532727180325E-01
(PID.TID 0000.0001) %MON exf_ustress_del2             =   1.1384468693208E-04
(PID.TID 0000.0001) %MON exf_vstress_max              =   1.5111811955770E+00
(PID.TID 0000.0001) %MON exf_vstress_min              =  -1.2790850202243E+00
(PID.TID 0000.0001) %MON exf_vstress_mean             =   2.4775638236744E-03
(PID.TID 0000.0001) %MON exf_vstress_sd               =   1.3058162050721E-01
(PID.TID 0000.0001) %MON exf_vstress_del2             =   1.0082425990798E-04
(PID.TID 0000.0001) %MON exf_hflux_max                =   1.3323544407132E+03
(PID.TID 0000.0001) %MON exf_hflux_min                =  -6.8378127014830E+02
(PID.TID 0000.0001) %MON exf_hflux_mean               =   2.8402559702139E+01
(PID.TID 0000.0001) %MON exf_hflux_sd                 =   2.6400214609042E+02
(PID.TID 0000.0001) %MON exf_hflux_del2               =   4.5754270435478E-01
(PID.TID 0000.0001) %MON exf_sflux_max                =   2.6067265351841E-07
(PID.TID 0000.0001) %MON exf_sflux_min                =  -2.1404334750440E-06
(PID.TID 0000.0001) %MON exf_sflux_mean               =   4.7849791358244E-09
(PID.TID 0000.0001) %MON exf_sflux_sd                 =   9.0127975366739E-08
(PID.TID 0000.0001) %MON exf_sflux_del2               =   2.1926706900178E-10
(PID.TID 0000.0001) %MON exf_wspeed_max               =   2.4284186363220E+01
(PID.TID 0000.0001) %MON exf_wspeed_min               =   4.1275614500046E-01
(PID.TID 0000.0001) %MON exf_wspeed_mean              =   7.0996998189925E+00
(PID.TID 0000.0001) %MON exf_wspeed_sd                =   3.2866234676911E+00
(PID.TID 0000.0001) %MON exf_wspeed_del2              =   1.2257134488214E-02
(PID.TID 0000.0001) %MON exf_atemp_max                =   3.0484568570455E+02
(PID.TID 0000.0001) %MON exf_atemp_min                =   2.2903648796082E+02
(PID.TID 0000.0001) %MON exf_atemp_mean               =   2.8918221478707E+02
(PID.TID 0000.0001) %MON exf_atemp_sd                 =   1.2331520203996E+01
(PID.TID 0000.0001) %MON exf_atemp_del2               =   2.6271641984023E-02
(PID.TID 0000.0001) %MON exf_aqh_max                  =   2.2123491701980E-02
(PID.TID 0000.0001) %MON exf_aqh_min                  =   7.1618355529305E-05
(PID.TID 0000.0001) %MON exf_aqh_mean                 =   1.0916611820785E-02
(PID.TID 0000.0001) %MON exf_aqh_sd                   =   5.6702809162249E-03
(PID.TID 0000.0001) %MON exf_aqh_del2                 =   1.4553689445001E-05
(PID.TID 0000.0001) %MON exf_lwflux_max               =   2.2233438907124E+02
(PID.TID 0000.0001) %MON exf_lwflux_min               =  -2.7192000600857E+01
(PID.TID 0000.0001) %MON exf_lwflux_mean              =   4.8839077817365E+01
(PID.TID 0000.0001) %MON exf_lwflux_sd                =   2.8644551197507E+01
(PID.TID 0000.0001) %MON exf_lwflux_del2              =   9.7890491056647E-02
(PID.TID 0000.0001) %MON exf_evap_max                 =   2.6879886916373E-07
(PID.TID 0000.0001) %MON exf_evap_min                 =  -2.9680304839868E-08
(PID.TID 0000.0001) %MON exf_evap_mean                =   4.6924884293673E-08
(PID.TID 0000.0001) %MON exf_evap_sd                  =   3.1441564560399E-08
(PID.TID 0000.0001) %MON exf_evap_del2                =   7.7869319680280E-11
(PID.TID 0000.0001) %MON exf_precip_max               =   1.0008568267494E-06
(PID.TID 0000.0001) %MON exf_precip_min               =  -1.7331435842038E-08
(PID.TID 0000.0001) %MON exf_precip_mean              =   3.9135456796410E-08
(PID.TID 0000.0001) %MON exf_precip_sd                =   8.0831054333042E-08
(PID.TID 0000.0001) %MON exf_precip_del2              =   2.1951417966602E-10
(PID.TID 0000.0001) %MON exf_swflux_max               =   2.5998528641642E+01
(PID.TID 0000.0001) %MON exf_swflux_min               =  -8.0744214956992E+02
(PID.TID 0000.0001) %MON exf_swflux_mean              =  -1.6948819298592E+02
(PID.TID 0000.0001) %MON exf_swflux_sd                =   2.0660913627031E+02
(PID.TID 0000.0001) %MON exf_swflux_del2              =   3.6835000954235E-01
(PID.TID 0000.0001) %MON exf_swdown_max               =   8.7132836405436E+02
(PID.TID 0000.0001) %MON exf_swdown_min               =  -3.4939388275146E+01
(PID.TID 0000.0001) %MON exf_swdown_mean              =   1.8353962770062E+02
(PID.TID 0000.0001) %MON exf_swdown_sd                =   2.2331426723399E+02
(PID.TID 0000.0001) %MON exf_swdown_del2              =   3.9913461944264E-01
(PID.TID 0000.0001) %MON exf_lwdown_max               =   4.6796554565430E+02
(PID.TID 0000.0001) %MON exf_lwdown_min               =   7.7463128407796E+01
(PID.TID 0000.0001) %MON exf_lwdown_mean              =   3.6298469037654E+02
(PID.TID 0000.0001) %MON exf_lwdown_sd                =   6.5584372140300E+01
(PID.TID 0000.0001) %MON exf_lwdown_del2              =   4.8495268136759E-01
(PID.TID 0000.0001) %MON exf_runoff_max               =   2.1695552200365E-06
(PID.TID 0000.0001) %MON exf_runoff_min               =   0.0000000000000E+00
(PID.TID 0000.0001) %MON exf_runoff_mean              =   3.0044483614390E-09
(PID.TID 0000.0001) %MON exf_runoff_sd                =   2.5208904653942E-08
(PID.TID 0000.0001) %MON exf_runoff_del2              =   1.8582972057814E-11
(PID.TID 0000.0001) // =======================================================
(PID.TID 0000.0001) // End MONITOR EXF statistics
(PID.TID 0000.0001) // =======================================================
 SEAICE_LSR: Residual Initial ipass,Uice,Vice=    1  1.37578873E-01  2.32604648E-01
 SEAICE_LSR: Residual FrDrift U_fd,V_fd=  8.83829553E+01  9.95634058E+01
 SEAICE_LSR (ipass=   1) iters,dU,Resid=   162  1.95735038E-04  1.22468960E-03
 SEAICE_LSR (ipass=   1) iters,dV,Resid=   162  1.16366239E-04  6.81349234E-04
 SEAICE_LSR: Residual Initial ipass,Uice,Vice=    2  4.16884585E-01  8.70433554E-01
 SEAICE_LSR: Residual FrDrift U_fd,V_fd=  8.83825663E+01  9.95534941E+01
 SEAICE_LSR (ipass=   2) iters,dU,Resid=    66  9.90329973E-05  1.26600225E-03
 SEAICE_LSR (ipass=   2) iters,dV,Resid=    66  1.93844091E-04  9.30251546E-04
 cg2d: Sum(rhs),rhsMax =   6.51067167915320E+00  3.58451536340604E-01
 cg2d: Sum(rhs),rhsMax =   6.54648427846572E+00  3.59576053656774E-01
(PID.TID 0000.0001)      cg2d_init_res =   2.56389459590519E-01
(PID.TID 0000.0001)      cg2d_iters(min,last) =      -1      91
(PID.TID 0000.0001)      cg2d_last_res =   6.95107963042058E-06
(PID.TID 0000.0001) // =======================================================
(PID.TID 0000.0001) // Begin MONITOR dynamic field statistics
(PID.TID 0000.0001) // =======================================================
(PID.TID 0000.0001) %MON time_tsnumber                =                    96
(PID.TID 0000.0001) %MON time_secondsf                =   3.4560000000000E+05
(PID.TID 0000.0001) %MON dynstat_eta_max              =   1.0757353730772E+00
(PID.TID 0000.0001) %MON dynstat_eta_min              =  -4.0443889643440E+00
(PID.TID 0000.0001) %MON dynstat_eta_mean             =  -3.3133792929821E-03
(PID.TID 0000.0001) %MON dynstat_eta_sd               =   7.3696375651141E-01
(PID.TID 0000.0001) %MON dynstat_eta_del2             =   2.8092807258793E-04
(PID.TID 0000.0001) %MON dynstat_uvel_max             =   6.9232704455913E-01
(PID.TID 0000.0001) %MON dynstat_uvel_min             =  -8.5792956442910E-01
(PID.TID 0000.0001) %MON dynstat_uvel_mean            =   1.4215574957340E-03
(PID.TID 0000.0001) %MON dynstat_uvel_sd              =   2.1295906738498E-02
(PID.TID 0000.0001) %MON dynstat_uvel_del2            =   1.2592257392375E-05
(PID.TID 0000.0001) %MON dynstat_vvel_max             =   1.4491163441475E+00
(PID.TID 0000.0001) %MON dynstat_vvel_min             =  -1.0704608432164E+00
(PID.TID 0000.0001) %MON dynstat_vvel_mean            =   1.1854116355417E-03
(PID.TID 0000.0001) %MON dynstat_vvel_sd              =   2.4480443568763E-02
(PID.TID 0000.0001) %MON dynstat_vvel_del2            =   1.2984791300255E-05
(PID.TID 0000.0001) %MON dynstat_wvel_max             =   6.2674109819589E-04
(PID.TID 0000.0001) %MON dynstat_wvel_min             =  -1.0094391134657E-03
(PID.TID 0000.0001) %MON dynstat_wvel_mean            =   1.7524222679781E-09
(PID.TID 0000.0001) %MON dynstat_wvel_sd              =   2.4806700138807E-05
(PID.TID 0000.0001) %MON dynstat_wvel_del2            =   2.2508096416768E-08
(PID.TID 0000.0001) %MON dynstat_theta_max            =   3.2833173343999E+01
(PID.TID 0000.0001) %MON dynstat_theta_min            =  -2.0415503960928E+00
(PID.TID 0000.0001) %MON dynstat_theta_mean           =   3.5907794565346E+00
(PID.TID 0000.0001) %MON dynstat_theta_sd             =   4.4362676349460E+00
(PID.TID 0000.0001) %MON dynstat_theta_del2           =   1.0462367902941E-04
(PID.TID 0000.0001) %MON dynstat_salt_max             =   4.0711399009652E+01
(PID.TID 0000.0001) %MON dynstat_salt_min             =   1.7572235182146E+01
(PID.TID 0000.0001) %MON dynstat_salt_mean            =   3.4725705033744E+01
(PID.TID 0000.0001) %MON dynstat_salt_sd              =   3.7880412596598E-01
(PID.TID 0000.0001) %MON dynstat_salt_del2            =   2.5322919172009E-05
(PID.TID 0000.0001) %MON dynstat_sst_max              =   3.2833173343999E+01
(PID.TID 0000.0001) %MON dynstat_sst_min              =  -1.9608470087625E+00
(PID.TID 0000.0001) %MON dynstat_sst_mean             =   1.8540660037400E+01
(PID.TID 0000.0001) %MON dynstat_sst_sd               =   1.0038372314610E+01
(PID.TID 0000.0001) %MON dynstat_sst_del2             =   8.9611293716456E-04
(PID.TID 0000.0001) %MON dynstat_sss_max              =   3.9753978500841E+01
(PID.TID 0000.0001) %MON dynstat_sss_min              =   1.7572235182146E+01
(PID.TID 0000.0001) %MON dynstat_sss_mean             =   3.4725585133555E+01
(PID.TID 0000.0001) %MON dynstat_sss_sd               =   1.2162410022317E+00
(PID.TID 0000.0001) %MON dynstat_sss_del2             =   3.8574317094466E-04
(PID.TID 0000.0001) %MON forcing_qnet_max             =   1.1455477445302E+03
(PID.TID 0000.0001) %MON forcing_qnet_min             =  -6.9594160230397E+02
(PID.TID 0000.0001) %MON forcing_qnet_mean            =   1.0282250239616E+01
(PID.TID 0000.0001) %MON forcing_qnet_sd              =   2.2177952110795E+02
(PID.TID 0000.0001) %MON forcing_qnet_del2            =   1.5700920973051E-01
(PID.TID 0000.0001) %MON forcing_qsw_max              =   2.5980971953401E+01
(PID.TID 0000.0001) %MON forcing_qsw_min              =  -7.1992450709802E+02
(PID.TID 0000.0001) %MON forcing_qsw_mean             =  -1.7045063160494E+02
(PID.TID 0000.0001) %MON forcing_qsw_sd               =   1.8344073970726E+02
(PID.TID 0000.0001) %MON forcing_qsw_del2             =   6.7119433323229E-02
(PID.TID 0000.0001) %MON forcing_empmr_max            =   2.3104495504315E-03
(PID.TID 0000.0001) %MON forcing_empmr_min            =  -2.1396514102627E-03
(PID.TID 0000.0001) %MON forcing_empmr_mean           =   5.1809779290342E-06
(PID.TID 0000.0001) %MON forcing_empmr_sd             =   1.0345202864298E-04
(PID.TID 0000.0001) %MON forcing_empmr_del2           =   4.3943574823380E-07
(PID.TID 0000.0001) %MON forcing_fu_max               =   1.4244618217150E+00
(PID.TID 0000.0001) %MON forcing_fu_min               =  -1.3309200638180E+00
(PID.TID 0000.0001) %MON forcing_fu_mean              =   8.6385041960921E-03
(PID.TID 0000.0001) %MON forcing_fu_sd                =   1.1745781664933E-01
(PID.TID 0000.0001) %MON forcing_fu_del2              =   1.0700785926304E-04
(PID.TID 0000.0001) %MON forcing_fv_max               =   1.4479529460271E+00
(PID.TID 0000.0001) %MON forcing_fv_min               =  -1.2283168832461E+00
(PID.TID 0000.0001) %MON forcing_fv_mean              =   2.1810109229983E-03
(PID.TID 0000.0001) %MON forcing_fv_sd                =   1.3535451716070E-01
(PID.TID 0000.0001) %MON forcing_fv_del2              =   1.0618775763502E-04
(PID.TID 0000.0001) %MON trAdv_CFL_u_max              =   6.5763578861727E-02
(PID.TID 0000.0001) %MON trAdv_CFL_v_max              =   6.8367769346762E-02
(PID.TID 0000.0001) %MON trAdv_CFL_w_max              =   1.6721598782044E-01
(PID.TID 0000.0001) %MON advcfl_uvel_max              =   7.1394992195861E-02
(PID.TID 0000.0001) %MON advcfl_vvel_max              =   6.8514375667682E-02
(PID.TID 0000.0001) %MON advcfl_wvel_max              =   1.7496054073002E-01
(PID.TID 0000.0001) %MON advcfl_W_hf_max              =   1.7690936414010E-01
(PID.TID 0000.0001) %MON pe_b_mean                    =   4.1746800001288E-04
(PID.TID 0000.0001) %MON ke_max                       =   1.0472983445964E+00
(PID.TID 0000.0001) %MON ke_mean                      =   5.0931742564708E-04
(PID.TID 0000.0001) %MON ke_vol                       =   1.3349966971929E+18
(PID.TID 0000.0001) %MON vort_r_min                   =  -2.0791694223437E-05
(PID.TID 0000.0001) %MON vort_r_max                   =   2.8788686974151E-05
(PID.TID 0000.0001) %MON vort_a_mean                  =  -1.9727864647440E-05
(PID.TID 0000.0001) %MON vort_a_sd                    =   7.4543211705293E-05
(PID.TID 0000.0001) %MON vort_p_mean                  =  -2.1760544098408E-05
(PID.TID 0000.0001) %MON vort_p_sd                    =   9.7246081655915E-05
(PID.TID 0000.0001) %MON surfExpan_theta_mean         =  -1.4983408325116E-07
(PID.TID 0000.0001) %MON surfExpan_salt_mean          =   4.4976530869195E-09
(PID.TID 0000.0001) // =======================================================
(PID.TID 0000.0001) // End MONITOR dynamic field statistics
(PID.TID 0000.0001) // =======================================================
(PID.TID 0000.0001) // =======================================================
(PID.TID 0000.0001) // Begin MONITOR SEAICE statistics
(PID.TID 0000.0001) // =======================================================
(PID.TID 0000.0001) %MON seaice_tsnumber              =                    96
(PID.TID 0000.0001) %MON seaice_time_sec              =   3.4560000000000E+05
(PID.TID 0000.0001) %MON seaice_uice_max              =   4.0000000000000E-01
(PID.TID 0000.0001) %MON seaice_uice_min              =  -4.0000000000000E-01
(PID.TID 0000.0001) %MON seaice_uice_mean             =   3.7317394697547E-03
(PID.TID 0000.0001) %MON seaice_uice_sd               =   1.9108633678402E-01
(PID.TID 0000.0001) %MON seaice_uice_del2             =   1.8396908878409E-04
(PID.TID 0000.0001) %MON seaice_vice_max              =   4.0000000000000E-01
(PID.TID 0000.0001) %MON seaice_vice_min              =  -4.0000000000000E-01
(PID.TID 0000.0001) %MON seaice_vice_mean             =  -5.1780924273358E-03
(PID.TID 0000.0001) %MON seaice_vice_sd               =   2.0983255613493E-01
(PID.TID 0000.0001) %MON seaice_vice_del2             =   1.9261324321137E-04
(PID.TID 0000.0001) %MON seaice_area_max              =   9.5000000000000E-01
(PID.TID 0000.0001) %MON seaice_area_min              =   0.0000000000000E+00
(PID.TID 0000.0001) %MON seaice_area_mean             =   3.7907890196097E-02
(PID.TID 0000.0001) %MON seaice_area_sd               =   1.7649094980230E-01
(PID.TID 0000.0001) %MON seaice_area_del2             =   2.5455470123877E-04
(PID.TID 0000.0001) %MON seaice_heff_max              =   3.9717202965784E+00
(PID.TID 0000.0001) %MON seaice_heff_min              =   0.0000000000000E+00
(PID.TID 0000.0001) %MON seaice_heff_mean             =   5.3806467970695E-02
(PID.TID 0000.0001) %MON seaice_heff_sd               =   3.1094060813875E-01
(PID.TID 0000.0001) %MON seaice_heff_del2             =   2.9538219085497E-04
(PID.TID 0000.0001) %MON seaice_hsnow_max             =   9.4851189619573E-01
(PID.TID 0000.0001) %MON seaice_hsnow_min             =  -6.6279764071417E-05
(PID.TID 0000.0001) %MON seaice_hsnow_mean            =   5.1737848820683E-03
(PID.TID 0000.0001) %MON seaice_hsnow_sd              =   3.1237783356460E-02
(PID.TID 0000.0001) %MON seaice_hsnow_del2            =   5.0029166883708E-05
(PID.TID 0000.0001) // =======================================================
(PID.TID 0000.0001) // End MONITOR SEAICE statistics
(PID.TID 0000.0001) // =======================================================
(PID.TID 0000.0001) // =======================================================
(PID.TID 0000.0001) // Begin MONITOR EXF statistics
(PID.TID 0000.0001) // =======================================================
(PID.TID 0000.0001) %MON exf_tsnumber                 =                    96
(PID.TID 0000.0001) %MON exf_time_sec                 =   3.4560000000000E+05
(PID.TID 0000.0001) %MON exf_ustress_max              =   1.4566231369972E+00
(PID.TID 0000.0001) %MON exf_ustress_min              =  -9.7180205583572E-01
(PID.TID 0000.0001) %MON exf_ustress_mean             =   9.7203098769888E-03
(PID.TID 0000.0001) %MON exf_ustress_sd               =   1.1214338970599E-01
(PID.TID 0000.0001) %MON exf_ustress_del2             =   1.0318133736299E-04
(PID.TID 0000.0001) %MON exf_vstress_max              =   1.4792666435242E+00
(PID.TID 0000.0001) %MON exf_vstress_min              =  -1.2746021151543E+00
(PID.TID 0000.0001) %MON exf_vstress_mean             =   2.7540971779649E-03
(PID.TID 0000.0001) %MON exf_vstress_sd               =   1.2979808877236E-01
(PID.TID 0000.0001) %MON exf_vstress_del2             =   9.2623117535481E-05
(PID.TID 0000.0001) %MON exf_hflux_max                =   1.2071476108194E+03
(PID.TID 0000.0001) %MON exf_hflux_min                =  -5.7422731209886E+02
(PID.TID 0000.0001) %MON exf_hflux_mean               =   2.5648508071641E+01
(PID.TID 0000.0001) %MON exf_hflux_sd                 =   2.3893162274968E+02
(PID.TID 0000.0001) %MON exf_hflux_del2               =   4.3133160724759E-01
(PID.TID 0000.0001) %MON exf_sflux_max                =   2.3106959366842E-07
(PID.TID 0000.0001) %MON exf_sflux_min                =  -2.1387642086053E-06
(PID.TID 0000.0001) %MON exf_sflux_mean               =   4.9537118512475E-09
(PID.TID 0000.0001) %MON exf_sflux_sd                 =   8.6540930260270E-08
(PID.TID 0000.0001) %MON exf_sflux_del2               =   1.9562376921672E-10
(PID.TID 0000.0001) %MON exf_wspeed_max               =   2.3396175384521E+01
(PID.TID 0000.0001) %MON exf_wspeed_min               =   4.5058685541153E-01
(PID.TID 0000.0001) %MON exf_wspeed_mean              =   7.1414584346124E+00
(PID.TID 0000.0001) %MON exf_wspeed_sd                =   3.2324336337680E+00
(PID.TID 0000.0001) %MON exf_wspeed_del2              =   1.2157400617813E-02
(PID.TID 0000.0001) %MON exf_atemp_max                =   3.0391248741150E+02
(PID.TID 0000.0001) %MON exf_atemp_min                =   2.2934775581360E+02
(PID.TID 0000.0001) %MON exf_atemp_mean               =   2.8916807518790E+02
(PID.TID 0000.0001) %MON exf_atemp_sd                 =   1.2289026967689E+01
(PID.TID 0000.0001) %MON exf_atemp_del2               =   2.6208559416872E-02
(PID.TID 0000.0001) %MON exf_aqh_max                  =   2.2374539636075E-02
(PID.TID 0000.0001) %MON exf_aqh_min                  =   7.2963546699611E-05
(PID.TID 0000.0001) %MON exf_aqh_mean                 =   1.0919810724093E-02
(PID.TID 0000.0001) %MON exf_aqh_sd                   =   5.6611555719000E-03
(PID.TID 0000.0001) %MON exf_aqh_del2                 =   1.4548847698520E-05
(PID.TID 0000.0001) %MON exf_lwflux_max               =   2.2111352116801E+02
(PID.TID 0000.0001) %MON exf_lwflux_min               =  -2.7463645689697E+01
(PID.TID 0000.0001) %MON exf_lwflux_mean              =   4.9142467851314E+01
(PID.TID 0000.0001) %MON exf_lwflux_sd                =   2.8317587002454E+01
(PID.TID 0000.0001) %MON exf_lwflux_del2              =   9.7988433905592E-02
(PID.TID 0000.0001) %MON exf_evap_max                 =   2.5684217931100E-07
(PID.TID 0000.0001) %MON exf_evap_min                 =  -3.1539246149411E-08
(PID.TID 0000.0001) %MON exf_evap_mean                =   4.7134051367720E-08
(PID.TID 0000.0001) %MON exf_evap_sd                  =   3.1346891855609E-08
(PID.TID 0000.0001) %MON exf_evap_del2                =   7.7897970356889E-11
(PID.TID 0000.0001) %MON exf_precip_max               =   1.0707553030898E-06
(PID.TID 0000.0001) %MON exf_precip_min               =  -1.7407542074466E-08
(PID.TID 0000.0001) %MON exf_precip_mean              =   3.9176795580660E-08
(PID.TID 0000.0001) %MON exf_precip_sd                =   7.6960450369636E-08
(PID.TID 0000.0001) %MON exf_precip_del2              =   1.9656379631200E-10
(PID.TID 0000.0001) %MON exf_swflux_max               =   2.5963415038943E+01
(PID.TID 0000.0001) %MON exf_swflux_min               =  -6.8325722659252E+02
(PID.TID 0000.0001) %MON exf_swflux_mean              =  -1.7333196186501E+02
(PID.TID 0000.0001) %MON exf_swflux_sd                =   1.7355497739025E+02
(PID.TID 0000.0001) %MON exf_swflux_del2              =   3.3736707302544E-01
(PID.TID 0000.0001) %MON exf_swdown_max               =   7.3687789916992E+02
(PID.TID 0000.0001) %MON exf_swdown_min               =  -3.4963603973389E+01
(PID.TID 0000.0001) %MON exf_swdown_mean              =   1.8785018822466E+02
(PID.TID 0000.0001) %MON exf_swdown_sd                =   1.8761685758932E+02
(PID.TID 0000.0001) %MON exf_swdown_del2              =   3.6605201100964E-01
(PID.TID 0000.0001) %MON exf_lwdown_max               =   4.6839266967773E+02
(PID.TID 0000.0001) %MON exf_lwdown_min               =   7.8721767425537E+01
(PID.TID 0000.0001) %MON exf_lwdown_mean              =   3.6267084139303E+02
(PID.TID 0000.0001) %MON exf_lwdown_sd                =   6.5455334299419E+01
(PID.TID 0000.0001) %MON exf_lwdown_del2              =   4.8398984051068E-01
(PID.TID 0000.0001) %MON exf_runoff_max               =   2.1727093788345E-06
(PID.TID 0000.0001) %MON exf_runoff_min               =   0.0000000000000E+00
(PID.TID 0000.0001) %MON exf_runoff_mean              =   3.0035439358127E-09
(PID.TID 0000.0001) %MON exf_runoff_sd                =   2.5238884585953E-08
(PID.TID 0000.0001) %MON exf_runoff_del2              =   1.8594395955259E-11
(PID.TID 0000.0001) // =======================================================
(PID.TID 0000.0001) // End MONITOR EXF statistics
(PID.TID 0000.0001) // =======================================================
 SEAICE_LSR: Residual Initial ipass,Uice,Vice=    1  1.29374787E-01  2.31728595E-01
 SEAICE_LSR: Residual FrDrift U_fd,V_fd=  8.82431302E+01  1.00217395E+02
 SEAICE_LSR (ipass=   1) iters,dU,Resid=   160  1.98336972E-04  1.11071530E-03
 SEAICE_LSR (ipass=   1) iters,dV,Resid=   160  1.38209926E-04  7.11484860E-04
 SEAICE_LSR: Residual Initial ipass,Uice,Vice=    2  4.62934538E-01  1.02182891E+00
 SEAICE_LSR: Residual FrDrift U_fd,V_fd=  8.82640800E+01  1.00218151E+02
 SEAICE_LSR (ipass=   2) iters,dU,Resid=    66  1.28983755E-04  9.82579761E-04
 SEAICE_LSR (ipass=   2) iters,dV,Resid=    66  1.92661477E-04  1.02431802E-03
 cg2d: Sum(rhs),rhsMax =   6.58224508951491E+00  3.60217475113499E-01
