(PID.TID 0000.0001) 
(PID.TID 0000.0001) // ======================================================
(PID.TID 0000.0001) //                      MITgcm UV
(PID.TID 0000.0001) //                      =========
(PID.TID 0000.0001) // ======================================================
(PID.TID 0000.0001) // execution environment starting up...
(PID.TID 0000.0001) 
(PID.TID 0000.0001) // MITgcmUV version:  checkpoint66k
(PID.TID 0000.0001) // Build user:        dmenemen
(PID.TID 0000.0001) // Build host:        borgr092
(PID.TID 0000.0001) // Build date:        Thu Sep 28 17:58:40 EDT 2017
(PID.TID 0000.0001) 
(PID.TID 0000.0001) // =======================================================
(PID.TID 0000.0001) // Execution Environment parameter file "eedata"
(PID.TID 0000.0001) // =======================================================
(PID.TID 0000.0001) ># Example "eedata" file
(PID.TID 0000.0001) ># Lines beginning "#" are comments
(PID.TID 0000.0001) ># nTx - No. threads per process in X
(PID.TID 0000.0001) ># nTy - No. threads per process in Y
(PID.TID 0000.0001) > &EEPARMS
(PID.TID 0000.0001) > useCubedSphereExchange=.TRUE.,
(PID.TID 0000.0001) > nTx=1,
(PID.TID 0000.0001) > nTy=1,
(PID.TID 0000.0001) > &
(PID.TID 0000.0001) 
(PID.TID 0000.0001) // =======================================================
(PID.TID 0000.0001) // Computational Grid Specification ( see files "SIZE.h" )
(PID.TID 0000.0001) //                                  ( and "eedata"       )
(PID.TID 0000.0001) // =======================================================
(PID.TID 0000.0001)      nPx =   96 ; /* No. processes in X */
(PID.TID 0000.0001)      nPy =    1 ; /* No. processes in Y */
(PID.TID 0000.0001)      nSx =    1 ; /* No. tiles in X per process */
(PID.TID 0000.0001)      nSy =    1 ; /* No. tiles in Y per process */
(PID.TID 0000.0001)      sNx =   30 ; /* Tile size in X */
(PID.TID 0000.0001)      sNy =   30 ; /* Tile size in Y */
(PID.TID 0000.0001)      OLx =    4 ; /* Tile overlap distance in X */
(PID.TID 0000.0001)      OLy =    4 ; /* Tile overlap distance in Y */
(PID.TID 0000.0001)      nTx =    1 ; /* No. threads in X per process */
(PID.TID 0000.0001)      nTy =    1 ; /* No. threads in Y per process */
(PID.TID 0000.0001)       Nr =   50 ; /* No. levels in the vertical   */
(PID.TID 0000.0001)       Nx = 2880 ; /* Total domain size in X ( = nPx*nSx*sNx ) */
(PID.TID 0000.0001)       Ny =   30 ; /* Total domain size in Y ( = nPy*nSy*sNy ) */
(PID.TID 0000.0001)   nTiles =    1 ; /* Total no. tiles per process ( = nSx*nSy ) */
(PID.TID 0000.0001)   nProcs =   96 ; /* Total no. processes ( = nPx*nPy ) */
(PID.TID 0000.0001) nThreads =    1 ; /* Total no. threads per process ( = nTx*nTy ) */
(PID.TID 0000.0001) usingMPI =    T ; /* Flag used to control whether MPI is in use */
(PID.TID 0000.0001)                   /*  note: To execute a program with MPI calls */
(PID.TID 0000.0001)                   /*  it must be launched appropriately e.g     */
(PID.TID 0000.0001)                   /*  "mpirun -np 64 ......"                    */
(PID.TID 0000.0001) useCoupler=    F ;/* Flag used to control communications with   */
(PID.TID 0000.0001)                   /*  other model components, through a coupler */
(PID.TID 0000.0001) debugMode =    F ; /* print debug msg. (sequence of S/R calls)  */
(PID.TID 0000.0001) printMapIncludesZeros=    F ; /* print zeros in Std.Output maps */
(PID.TID 0000.0001) maxLengthPrt1D=   65 /* maxLength of 1D array printed to StdOut */
(PID.TID 0000.0001) 
(PID.TID 0000.0001) ======= Starting MPI parallel Run =========
(PID.TID 0000.0001)  My Processor Name (len:  8 ) = borgr092
(PID.TID 0000.0001)  Located at (  0,  0) on processor grid (0: 95,0:  0)
(PID.TID 0000.0001)  Origin at  (     1,     1) on global grid (1:  2880,1:    30)
(PID.TID 0000.0001)  North neighbor = processor 0000
(PID.TID 0000.0001)  South neighbor = processor 0000
(PID.TID 0000.0001)   East neighbor = processor 0001
(PID.TID 0000.0001)   West neighbor = processor 0095
(PID.TID 0000.0001) // ======================================================
(PID.TID 0000.0001) // Mapping of tiles to threads
(PID.TID 0000.0001) // ======================================================
(PID.TID 0000.0001) // -o- Thread   1, tiles (   1:   1,   1:   1)
(PID.TID 0000.0001) 
(PID.TID 0000.0001) W2_READPARMS: opening data.exch2
(PID.TID 0000.0001)  OPEN_COPY_DATA_FILE: opening file data.exch2
(PID.TID 0000.0001) // =======================================================
(PID.TID 0000.0001) // Parameter file "data.exch2"
(PID.TID 0000.0001) // =======================================================
(PID.TID 0000.0001) ># EXCH2 Package: Wrapper-2 User Choice
(PID.TID 0000.0001) >#--------------------
(PID.TID 0000.0001) >#  preDefTopol   :: pre-defined Topology selector:
(PID.TID 0000.0001) >#                :: = 0 : topology defined from processing "data.exch2";
(PID.TID 0000.0001) >#                :: = 1 : simple, single facet topology;
(PID.TID 0000.0001) >#                :: = 2 : customized topology (w2_set_myown_facets)
(PID.TID 0000.0001) >#                :: = 3 : 6-facet Cube (3 face-dims: nRed, nGreen, nBlue).
(PID.TID 0000.0001) >#  dimsFacets    :: facet pair of dimensions (n1x,n1y, n2x,n2y ...)
(PID.TID 0000.0001) >#  facetEdgeLink :: Face-Edge connectivity map:
(PID.TID 0000.0001) >#    facetEdgeLink(i,j)=XX.1 : face(j)-edge(i) (i=1,2,3,4 <==> N,S,E,W)
(PID.TID 0000.0001) >#    is connected to Northern edge of face "XX" ; similarly,
(PID.TID 0000.0001) >#    = XX.2 : to Southern.E, XX.3 = Eastern.E, XX.4 = Western.E of face "XX"
(PID.TID 0000.0001) >#  blankList     :: List of "blank" tiles
(PID.TID 0000.0001) >#  W2_mapIO      :: global map IO selector (-1 = old type ; 0 = 1 long line in X
(PID.TID 0000.0001) >#                :: 1 = compact, mostly in Y dir)
(PID.TID 0000.0001) >#  W2_printMsg   :: option for information messages printing
(PID.TID 0000.0001) >#                :: <0 : write to log file ; =0 : minimum print ;
(PID.TID 0000.0001) >#                :: =1 : no duplicated print ; =2 : all processes do print
(PID.TID 0000.0001) >#--------------------
(PID.TID 0000.0001) > &W2_EXCH2_PARM01
(PID.TID 0000.0001) ># W2_printMsg= 0,
(PID.TID 0000.0001) >  W2_mapIO   = 1,
(PID.TID 0000.0001) >#
(PID.TID 0000.0001) >  preDefTopol=0,
(PID.TID 0000.0001) >#-- 5 facets llc_120 topology (drop facet 6 and its connection):
(PID.TID 0000.0001) >  dimsFacets(1:10) = 90, 270, 90, 270, 90, 90, 270, 90, 270, 90,
(PID.TID 0000.0001) >  facetEdgeLink(1:4,1)= 3.4, 0. , 2.4, 5.1,
(PID.TID 0000.0001) >  facetEdgeLink(1:4,2)= 3.2, 0. , 4.2, 1.3,
(PID.TID 0000.0001) >  facetEdgeLink(1:4,3)= 5.4, 2.1, 4.4, 1.1,
(PID.TID 0000.0001) >  facetEdgeLink(1:4,4)= 5.2, 2.3, 0. , 3.3,
(PID.TID 0000.0001) >  facetEdgeLink(1:4,5)= 1.4, 4.1, 0. , 3.1,
(PID.TID 0000.0001) >#-- full 6 facets llc_120 topology (equivalent to default preDefTopol=3):
(PID.TID 0000.0001) ># dimsFacets(1:12) = 120, 360, 120, 360, 120, 120, 360, 120, 360, 120, 120, 120,
(PID.TID 0000.0001) ># facetEdgeLink(1:4,1)= 3.4, 6.1, 2.4, 5.1,
(PID.TID 0000.0001) ># facetEdgeLink(1:4,2)= 3.2, 6.3, 4.2, 1.3,
(PID.TID 0000.0001) ># facetEdgeLink(1:4,3)= 5.4, 2.1, 4.4, 1.1,
(PID.TID 0000.0001) ># facetEdgeLink(1:4,4)= 5.2, 2.3, 6.2, 3.3,
(PID.TID 0000.0001) ># facetEdgeLink(1:4,5)= 1.4, 4.1, 6.4, 3.1,
(PID.TID 0000.0001) ># facetEdgeLink(1:4,6)= 1.2, 4.3, 2.2, 5.3,
(PID.TID 0000.0001) >#
(PID.TID 0000.0001) >#90x30   nprocs = 36
(PID.TID 0000.0001) ># blankList(1:3)=1,10,11,
(PID.TID 0000.0001) >#30x90
(PID.TID 0000.0001) >#
(PID.TID 0000.0001) >#45x30   nprocs = 72
(PID.TID 0000.0001) ># blankList(1:6)=1,2,19,20,21,22
(PID.TID 0000.0001) >#30x45   nprocs = 68
(PID.TID 0000.0001) ># blankList(1:10)=2,3,19,20,21,35,51,60,69,78
(PID.TID 0000.0001) >#45x45   nprocs = 48
(PID.TID 0000.0001) ># blankList(1:4)=2,13,14,23
(PID.TID 0000.0001) >#30x30   nprocs = 96
(PID.TID 0000.0001) >  blankList(1:21)=1,2,3,5,6,28,29,30,31,32,33,49,50,52,53,72,81,90,99,108,117
(PID.TID 0000.0001) >#30x30   nprocs = 112
(PID.TID 0000.0001) ># blankList(1:5)=2,3,28,29,30
(PID.TID 0000.0001) >#15x30   nprocs = 192
(PID.TID 0000.0001) ># blankList(1:42)=1,2,3,4,5,6,9,10,11,12,55,56,57,58,59,60,61,62,63,64,65,66,
(PID.TID 0000.0001) >#            97,98,99,100,103,104,105,106,143,144,
(PID.TID 0000.0001) >#            161,162,179,180,197,198,215,216,233,234
(PID.TID 0000.0001) >#15x15   nprocs = 360
(PID.TID 0000.0001) ># blankList(1:108)=1,2,3,4,5,6,7,8,9,10,11,12,14,15,16,17,18,21,22,23,24,
(PID.TID 0000.0001) >#  65,71,75,76,90,95,96,101,102,109,110,111,112,113,114,115,116,117,118,119,
(PID.TID 0000.0001) >#  120,121,122,123,124,125,126,127,128,129,130,131,132,
(PID.TID 0000.0001) >#  188,189,190,193,194,195,196,199,
(PID.TID 0000.0001) >#  200,201,202,203,205,206,207,208,209,211,212,213,214,215,216,242,247,253,
(PID.TID 0000.0001) >#  267,268,269,270,287,288,305,306,323,324,341,342,359,360,362,376,377,378,
(PID.TID 0000.0001) >#  380,381,382,395,396,400,412,413,414,430,
(PID.TID 0000.0001) >#note: it seems that 8 of the followig 9 tiles could be added to 15x15 blank
(PID.TID 0000.0001) >#  list to reach 352=22*16 cores : 431 432 440 441 448 449 450 467 468
(PID.TID 0000.0001) > &
(PID.TID 0000.0001) 
(PID.TID 0000.0001) W2_READPARMS: finished reading data.exch2
(PID.TID 0000.0001) W2_useE2ioLayOut=    T ;/* T: use Exch2 glob IO map; F: use model default */
(PID.TID 0000.0001) W2_mapIO        =   1 ; /* select option for Exch2 global-IO map */
(PID.TID 0000.0001) W2_printMsg     =  -1 ; /* select option for printing information */
(PID.TID 0000.0001) ===== Start setting W2 TOPOLOGY:
(PID.TID 0000.0001)  write to log-file: w2_tile_topology.0000.log
(PID.TID 0000.0001) =====       setting W2 TOPOLOGY: Done
(PID.TID 0000.0001) 
(PID.TID 0000.0001)  INI_PARMS: opening model parameter file "data"
(PID.TID 0000.0001)  OPEN_COPY_DATA_FILE: opening file data
(PID.TID 0000.0001) // =======================================================
(PID.TID 0000.0001) // Parameter file "data"
(PID.TID 0000.0001) // =======================================================
(PID.TID 0000.0001) ># ====================
(PID.TID 0000.0001) ># | Model parameters |
(PID.TID 0000.0001) ># ====================
(PID.TID 0000.0001) >#
(PID.TID 0000.0001) ># Continuous equation parameters
(PID.TID 0000.0001) > &PARM01
(PID.TID 0000.0001) > tRef               = 3*23.,3*22.,21.,2*20.,19.,2*18.,17.,2*16.,15.,14.,13.,
(PID.TID 0000.0001) >                      12.,11.,2*9.,8.,7.,2*6.,2*5.,3*4.,3*3.,4*2.,12*1.,
(PID.TID 0000.0001) > sRef               = 50*34.5,
(PID.TID 0000.0001) > no_slip_sides  = .TRUE.,
(PID.TID 0000.0001) > no_slip_bottom = .TRUE.,
(PID.TID 0000.0001) >#
(PID.TID 0000.0001) > viscAr=0.5E-4,
(PID.TID 0000.0001) >#
(PID.TID 0000.0001) > viscAh=1.E0,
(PID.TID 0000.0001) > viscAhGrid=2.E-2,
(PID.TID 0000.0001) ># viscAh=2.0e4,
(PID.TID 0000.0001) >#
(PID.TID 0000.0001) > diffKhT=1.E1,
(PID.TID 0000.0001) > diffKrT=1.E-5,
(PID.TID 0000.0001) > diffKhS=1.E1,
(PID.TID 0000.0001) > diffKrS=1.E-5,
(PID.TID 0000.0001) >#
(PID.TID 0000.0001) >### diffKrBL79surf=0.1E-4,
(PID.TID 0000.0001) >### diffKrBL79deep=1.0E-4,
(PID.TID 0000.0001) > bottomDragQuadratic = 0.001,
(PID.TID 0000.0001) >#when using ggl90
(PID.TID 0000.0001) > ivdc_kappa=10.,
(PID.TID 0000.0001) > implicitDiffusion=.TRUE.,
(PID.TID 0000.0001) > implicitViscosity=.TRUE.,
(PID.TID 0000.0001) > useRealFreshWaterFlux=.TRUE.,
(PID.TID 0000.0001) ># balanceThetaClimRelax=.TRUE.,
(PID.TID 0000.0001) > balanceSaltClimRelax=.TRUE.,
(PID.TID 0000.0001) ># balanceEmPmR=.TRUE.,
(PID.TID 0000.0001) ># balanceQnet=.TRUE.,
(PID.TID 0000.0001) > allowFreezing=.FALSE.,
(PID.TID 0000.0001) >### hFacInf=0.2,
(PID.TID 0000.0001) >### hFacSup=2.0,
(PID.TID 0000.0001) > hFacMin=.2,
(PID.TID 0000.0001) > hFacMinDr=5.,
(PID.TID 0000.0001) > select_rStar=2,
(PID.TID 0000.0001) > nonlinFreeSurf=4,
(PID.TID 0000.0001) > gravity=9.81,
(PID.TID 0000.0001) > rhonil=1029.,
(PID.TID 0000.0001) > rhoConst=1029.,
(PID.TID 0000.0001) > rhoConstFresh=1000.,
(PID.TID 0000.0001) > convertFW2Salt=-1.,
(PID.TID 0000.0001) > eosType='JMD95Z',
(PID.TID 0000.0001) > implicitFreeSurface=.TRUE.,
(PID.TID 0000.0001) > exactConserv=.TRUE.,
(PID.TID 0000.0001) > useSingleCpuIO=.TRUE.,
(PID.TID 0000.0001) > tempAdvScheme=30,
(PID.TID 0000.0001) > saltAdvScheme=30,
(PID.TID 0000.0001) > tempVertAdvScheme=3,
(PID.TID 0000.0001) > saltVertAdvScheme=3,
(PID.TID 0000.0001) > tempImplVertAdv=.TRUE.,
(PID.TID 0000.0001) > saltImplVertAdv=.TRUE.,
(PID.TID 0000.0001) > staggerTimeStep=.TRUE.,
(PID.TID 0000.0001) > vectorInvariantMomentum=.TRUE.,
(PID.TID 0000.0001) >#when using the cd scheme:
(PID.TID 0000.0001) ># useCDscheme=.TRUE.,
(PID.TID 0000.0001) > useJamartWetPoints=.TRUE.,
(PID.TID 0000.0001) > readBinaryPrec=32,
(PID.TID 0000.0001) > writeBinaryPrec=32,
(PID.TID 0000.0001) > debugLevel=1,
(PID.TID 0000.0001) > &
(PID.TID 0000.0001) >
(PID.TID 0000.0001) ># Elliptic solver parameters
(PID.TID 0000.0001) > &PARM02
(PID.TID 0000.0001) > cg2dMaxIters=300,
(PID.TID 0000.0001) > cg2dTargetResWunit=1.E-12,
(PID.TID 0000.0001) > &
(PID.TID 0000.0001) >
(PID.TID 0000.0001) ># Time stepping parameters
(PID.TID 0000.0001) > &PARM03
(PID.TID 0000.0001) > nIter0=1,
(PID.TID 0000.0001) >#2 lev2 for testing:
(PID.TID 0000.0001) >#nTimeSteps=8,
(PID.TID 0000.0001) >#20y:
(PID.TID 0000.0001) > nTimeSteps=175295,
(PID.TID 0000.0001) >#60 years
(PID.TID 0000.0001) >#nTimeSteps=525985,
(PID.TID 0000.0001) >#
(PID.TID 0000.0001) > forcing_In_AB=.FALSE.,
(PID.TID 0000.0001) > momDissip_In_AB=.FALSE.,
(PID.TID 0000.0001) >#when using the cd scheme:
(PID.TID 0000.0001) ># epsAB_CD = 0.25,
(PID.TID 0000.0001) ># tauCD=172800.0,
(PID.TID 0000.0001) > deltaT = 900.,
(PID.TID 0000.0001) >#when using ab2:
(PID.TID 0000.0001) > abEps = 0.1,
(PID.TID 0000.0001) >#when using ab3:
(PID.TID 0000.0001) ># doAB_onGtGs=.FALSE.,
(PID.TID 0000.0001) ># alph_AB=0.5,
(PID.TID 0000.0001) ># beta_AB=0.281105,
(PID.TID 0000.0001) >#
(PID.TID 0000.0001) > pChkptFreq  =31536000.0,
(PID.TID 0000.0001) > chkptFreq   =31536000.0,
(PID.TID 0000.0001) ># taveFreq    =31536000.0,
(PID.TID 0000.0001) ># dumpFreq    =31536000.0,
(PID.TID 0000.0001) > monitorFreq = 7200.0,
(PID.TID 0000.0001) ># monitorFreq = 6307200.0,
(PID.TID 0000.0001) > dumpInitAndLast = .TRUE.,
(PID.TID 0000.0001) > adjMonitorFreq = 864000.0,
(PID.TID 0000.0001) > pickupStrictlyMatch=.FALSE.,
(PID.TID 0000.0001) > &
(PID.TID 0000.0001) >
(PID.TID 0000.0001) ># Gridding parameters
(PID.TID 0000.0001) > &PARM04
(PID.TID 0000.0001) > usingCurvilinearGrid=.TRUE.,
(PID.TID 0000.0001) > delR =
(PID.TID 0000.0001) >     10.00, 10.00, 10.00, 10.00, 10.00, 10.00, 10.00, 10.01,
(PID.TID 0000.0001) >     10.03, 10.11, 10.32, 10.80, 11.76, 13.42, 16.04, 19.82, 24.85,
(PID.TID 0000.0001) >     31.10, 38.42, 46.50, 55.00, 63.50, 71.58, 78.90, 85.15, 90.18,
(PID.TID 0000.0001) >     93.96, 96.58, 98.25, 99.25,100.01,101.33,104.56,111.33,122.83,
(PID.TID 0000.0001) >     139.09,158.94,180.83,203.55,226.50,249.50,272.50,295.50,318.50,
(PID.TID 0000.0001) >     341.50,364.50,387.50,410.50,433.50,456.50,
(PID.TID 0000.0001) > &
(PID.TID 0000.0001) >
(PID.TID 0000.0001) ># Input datasets
(PID.TID 0000.0001) > &PARM05
(PID.TID 0000.0001) >#adTapeDir='tapes',
(PID.TID 0000.0001) > bathyFile      ='bathy.bin',
(PID.TID 0000.0001) > hydrogThetaFile='T_OWPv1_M_eccollc_90x50.bin',
(PID.TID 0000.0001) > hydrogSaltFile ='S_OWPv1_M_eccollc_90x50.bin',
(PID.TID 0000.0001) > viscA4Dfile    ='viscA4Dfld.bin',
(PID.TID 0000.0001) > viscA4Zfile    ='viscA4Zfld.bin',
(PID.TID 0000.0001) > geothermalFile='geothermalFlux.bin',
(PID.TID 0000.0001) >#
(PID.TID 0000.0001) > &
(PID.TID 0000.0001) 
(PID.TID 0000.0001)  INI_PARMS ; starts to read PARM01
(PID.TID 0000.0001)  INI_PARMS ; read PARM01 : OK
(PID.TID 0000.0001)  INI_PARMS ; starts to read PARM02
(PID.TID 0000.0001)  INI_PARMS ; read PARM02 : OK
(PID.TID 0000.0001)  INI_PARMS ; starts to read PARM03
(PID.TID 0000.0001)  INI_PARMS ; read PARM03 : OK
(PID.TID 0000.0001)  INI_PARMS ; starts to read PARM04
(PID.TID 0000.0001)  INI_PARMS ; read PARM04 : OK
(PID.TID 0000.0001)  INI_PARMS ; starts to read PARM05
(PID.TID 0000.0001)  INI_PARMS ; read PARM05 : OK
(PID.TID 0000.0001)  INI_PARMS: finished reading file "data"
(PID.TID 0000.0001)  PACKAGES_BOOT: opening data.pkg
(PID.TID 0000.0001)  OPEN_COPY_DATA_FILE: opening file data.pkg
(PID.TID 0000.0001) // =======================================================
(PID.TID 0000.0001) // Parameter file "data.pkg"
(PID.TID 0000.0001) // =======================================================
(PID.TID 0000.0001) ># Packages
(PID.TID 0000.0001) > &PACKAGES
(PID.TID 0000.0001) > useGMRedi          = .TRUE.,
(PID.TID 0000.0001) > useGGL90           = .TRUE.,
(PID.TID 0000.0001) > useSALT_PLUME      = .TRUE.,
(PID.TID 0000.0001) > useDiagnostics     = .TRUE.,
(PID.TID 0000.0001) > &
(PID.TID 0000.0001) 
(PID.TID 0000.0001)  PACKAGES_BOOT: finished reading data.pkg
(PID.TID 0000.0001)  PACKAGES_BOOT: On/Off package Summary
 --------  pkgs with a standard "usePKG" On/Off switch in "data.pkg":  --------
 pkg/ggl90                compiled   and   used ( useGGL90                 = T )
 pkg/gmredi               compiled   and   used ( useGMRedi                = T )
 pkg/salt_plume           compiled   and   used ( useSALT_PLUME            = T )
 pkg/diagnostics          compiled   and   used ( useDiagnostics           = T )
 -------- pkgs without standard "usePKG" On/Off switch in "data.pkg":  --------
 pkg/generic_advdiff      compiled   and   used ( useGAD                   = T )
 pkg/mom_common           compiled   and   used ( momStepping              = T )
 pkg/mom_vecinv           compiled   and   used ( +vectorInvariantMomentum = T )
 pkg/monitor              compiled   and   used ( monitorFreq > 0.         = T )
 pkg/debug                compiled but not used ( debugMode                = F )
 pkg/exch2                compiled   and   used
 pkg/rw                   compiled   and   used
 pkg/mdsio                compiled   and   used
(PID.TID 0000.0001)  PACKAGES_BOOT: End of package Summary
(PID.TID 0000.0001) 
(PID.TID 0000.0001)  GGL90_READPARMS: opening data.ggl90
(PID.TID 0000.0001)  OPEN_COPY_DATA_FILE: opening file data.ggl90
(PID.TID 0000.0001) // =======================================================
(PID.TID 0000.0001) // Parameter file "data.ggl90"
(PID.TID 0000.0001) // =======================================================
(PID.TID 0000.0001) ># =====================================================================
(PID.TID 0000.0001) ># | Parameters for Gaspar et al. (1990)'s TKE vertical mixing scheme  |
(PID.TID 0000.0001) ># =====================================================================
(PID.TID 0000.0001) > &GGL90_PARM01
(PID.TID 0000.0001) ># GGL90taveFreq = 345600000.,
(PID.TID 0000.0001) ># GGL90dumpFreq = 86400.,
(PID.TID 0000.0001) ># GGL90writeState=.FALSE.,
(PID.TID 0000.0001) ># GGL90diffTKEh=3.e3,
(PID.TID 0000.0001) > GGL90alpha=30.,
(PID.TID 0000.0001) ># GGL90TKEFile = 'TKE_init.bin',
(PID.TID 0000.0001) > GGL90TKEmin  = 1.e-7,
(PID.TID 0000.0001) > GGL90TKEbottom = 1.e-6,
(PID.TID 0000.0001) > mxlMaxFlag =2,
(PID.TID 0000.0001) > mxlSurfFlag=.TRUE.,
(PID.TID 0000.0001) > &
(PID.TID 0000.0001) 
(PID.TID 0000.0001)  GGL90_READPARMS: finished reading data.ggl90
(PID.TID 0000.0001) // =======================================================
(PID.TID 0000.0001) // GGL90 configuration
(PID.TID 0000.0001) // =======================================================
(PID.TID 0000.0001) GGL90dumpFreq =   /* GGL90 state write out interval ( s ). */
(PID.TID 0000.0001)                 0.000000000000000E+00
(PID.TID 0000.0001)     ;
(PID.TID 0000.0001) GGL90taveFreq =   /* GGL90 averaging interval ( s ). */
(PID.TID 0000.0001)                 0.000000000000000E+00
(PID.TID 0000.0001)     ;
(PID.TID 0000.0001) GGL90mixingMAPS =   /* GGL90 IO flag. */
(PID.TID 0000.0001)                   F
(PID.TID 0000.0001)     ;
(PID.TID 0000.0001) GGL90writeState =   /* GGL90 IO flag. */
(PID.TID 0000.0001)                   F
(PID.TID 0000.0001)     ;
(PID.TID 0000.0001) GGL90ck =   /* GGL90 viscosity parameter. */
(PID.TID 0000.0001)                 1.000000000000000E-01
(PID.TID 0000.0001)     ;
(PID.TID 0000.0001) GGL90ceps =   /* GGL90 dissipation parameter. */
(PID.TID 0000.0001)                 7.000000000000000E-01
(PID.TID 0000.0001)     ;
(PID.TID 0000.0001) GGL90alpha =   /* GGL90 TKE diffusivity parameter. */
(PID.TID 0000.0001)                 3.000000000000000E+01
(PID.TID 0000.0001)     ;
(PID.TID 0000.0001) GGL90m2 =   /* GGL90 wind stress to vertical stress ratio. */
(PID.TID 0000.0001)                 3.750000000000000E+00
(PID.TID 0000.0001)     ;
(PID.TID 0000.0001) GGL90TKEmin =   /* GGL90 minimum kinetic energy ( m^2/s^2 ). */
(PID.TID 0000.0001)                 1.000000000000000E-07
(PID.TID 0000.0001)     ;
(PID.TID 0000.0001) GGL90TKEsurfMin =   /* GGL90 minimum surface kinetic energy ( m^2/s^2 ). */
(PID.TID 0000.0001)                 1.000000000000000E-04
(PID.TID 0000.0001)     ;
(PID.TID 0000.0001) GGL90TKEbottom =   /* GGL90 bottom kinetic energy ( m^2/s^2 ). */
(PID.TID 0000.0001)                 1.000000000000000E-06
(PID.TID 0000.0001)     ;
(PID.TID 0000.0001) GGL90viscMax =   /* GGL90 upper limit for viscosity ( m^2/s ). */
(PID.TID 0000.0001)                 1.000000000000000E+02
(PID.TID 0000.0001)     ;
(PID.TID 0000.0001) GGL90diffMax =   /* GGL90 upper limit for diffusivity ( m^2/s ). */
(PID.TID 0000.0001)                 1.000000000000000E+02
(PID.TID 0000.0001)     ;
(PID.TID 0000.0001) GGL90diffTKEh =   /* GGL90 horizontal diffusivity for TKE ( m^2/s ). */
(PID.TID 0000.0001)                 0.000000000000000E+00
(PID.TID 0000.0001)     ;
(PID.TID 0000.0001) GGL90mixingLengthMin =   /* GGL90 minimum mixing length ( m ). */
(PID.TID 0000.0001)                 1.000000000000000E-08
(PID.TID 0000.0001)     ;
(PID.TID 0000.0001) mxlMaxFlag =   /* Flag for limiting mixing-length method */
(PID.TID 0000.0001)                       2
(PID.TID 0000.0001)     ;
(PID.TID 0000.0001) mxlSurfFlag =   /* GGL90 flag for near surface mixing. */
(PID.TID 0000.0001)                   T
(PID.TID 0000.0001)     ;
(PID.TID 0000.0001) calcMeanVertShear = /* calc Mean of Vert.Shear (vs shear of Mean flow) */
(PID.TID 0000.0001)                   F
(PID.TID 0000.0001)     ;
(PID.TID 0000.0001) GGL90: GGL90TKEFile =
(PID.TID 0000.0001) GGL90writeState =   /* GGL90 Boundary condition flag. */
(PID.TID 0000.0001)                   T
(PID.TID 0000.0001)     ;
(PID.TID 0000.0001) // =======================================================
(PID.TID 0000.0001) // End of GGL90 config. summary
(PID.TID 0000.0001) // =======================================================
(PID.TID 0000.0001) 
(PID.TID 0000.0001)  GM_READPARMS: opening data.gmredi
(PID.TID 0000.0001)  OPEN_COPY_DATA_FILE: opening file data.gmredi
(PID.TID 0000.0001) // =======================================================
(PID.TID 0000.0001) // Parameter file "data.gmredi"
(PID.TID 0000.0001) // =======================================================
(PID.TID 0000.0001) ># GM+Redi package parameters:
(PID.TID 0000.0001) >#     GM_Small_Number  :: epsilon used in computing the slope
(PID.TID 0000.0001) >#     GM_slopeSqCutoff :: slope^2 cut-off value
(PID.TID 0000.0001) >
(PID.TID 0000.0001) >#-from MOM :
(PID.TID 0000.0001) ># GM_background_K: 	G & Mc.W  diffusion coefficient
(PID.TID 0000.0001) ># GM_maxSlope    :	max slope of isopycnals
(PID.TID 0000.0001) ># GM_Scrit       :	transition for scaling diffusion coefficient
(PID.TID 0000.0001) ># GM_Sd          :	half width scaling for diffusion coefficient
(PID.TID 0000.0001) ># GM_taper_scheme:	slope clipping or one of the tapering schemes
(PID.TID 0000.0001) ># GM_Kmin_horiz  :	horizontal diffusion minimum value
(PID.TID 0000.0001) >
(PID.TID 0000.0001) >#-Option parameters (needs to "define" options in GMREDI_OPTIONS.h")
(PID.TID 0000.0001) ># GM_isopycK     :	isopycnal diffusion coefficient (default=GM_background_K)
(PID.TID 0000.0001) ># GM_AdvForm     :	turn on GM Advective form       (default=Skew flux form)
(PID.TID 0000.0001) >
(PID.TID 0000.0001) > &GM_PARM01
(PID.TID 0000.0001) >  GM_Small_Number  = 1.D-20,
(PID.TID 0000.0001) >  GM_slopeSqCutoff = 1.D+08,
(PID.TID 0000.0001) >  GM_AdvForm         = .TRUE.,
(PID.TID 0000.0001) >  GM_isopycK         = 1.D+3,
(PID.TID 0000.0001) >  GM_background_K    = 1.D+3,
(PID.TID 0000.0001) >  GM_maxSlope        = 4.D-3,
(PID.TID 0000.0001) >  GM_taper_scheme    = 'stableGmAdjTap',
(PID.TID 0000.0001) >  GM_Kmin_horiz      = 100.,
(PID.TID 0000.0001) >  GM_Scrit           = 4.D-3,
(PID.TID 0000.0001) >  GM_Sd              = 1.D-3,
(PID.TID 0000.0001) >#
(PID.TID 0000.0001) >###  GM_Visbeck_alpha   = 1.5D-2,
(PID.TID 0000.0001) >###  GM_Visbeck_alpha   = 0.D0,
(PID.TID 0000.0001) >###  GM_Visbeck_length  = 2.D+5,
(PID.TID 0000.0001) >###  GM_Visbeck_depth   = 1.D+3,
(PID.TID 0000.0001) >###  GM_Visbeck_maxval_K= 2.5D+3,
(PID.TID 0000.0001) > &
(PID.TID 0000.0001) >
(PID.TID 0000.0001) >
(PID.TID 0000.0001) 
(PID.TID 0000.0001)  GM_READPARMS: finished reading data.gmredi
(PID.TID 0000.0001) SALT_PLUME_READPARMS: opening data.salt_plume
(PID.TID 0000.0001)  OPEN_COPY_DATA_FILE: opening file data.salt_plume
(PID.TID 0000.0001) // =======================================================
(PID.TID 0000.0001) // Parameter file "data.salt_plume"
(PID.TID 0000.0001) // =======================================================
(PID.TID 0000.0001) > &SALT_PLUME_PARM01
(PID.TID 0000.0001) > SPsalFRAC= 0.5D0,
(PID.TID 0000.0001) > &
(PID.TID 0000.0001) 
(PID.TID 0000.0001) SALT_PLUME_READPARMS: finished reading data.salt_plume
(PID.TID 0000.0001)  DIAGNOSTICS_READPARMS: opening data.diagnostics
(PID.TID 0000.0001)  OPEN_COPY_DATA_FILE: opening file data.diagnostics
(PID.TID 0000.0001) // =======================================================
(PID.TID 0000.0001) // Parameter file "data.diagnostics"
(PID.TID 0000.0001) // =======================================================
(PID.TID 0000.0001) ># Diagnostic Package Choices
(PID.TID 0000.0001) >#-----------------
(PID.TID 0000.0001) ># for each output-stream:
(PID.TID 0000.0001) >#  filename(n) : prefix of the output file name (only 8.c long) for outp.stream n
(PID.TID 0000.0001) >#  frequency(n):< 0 : write snap-shot output every multiple of |frequency| (iter)
(PID.TID 0000.0001) >#               > 0 : write time-average output every multiple of frequency (iter)
(PID.TID 0000.0001) >#  levels(:,n) : list of levels to write to file (Notes: declared as REAL)
(PID.TID 0000.0001) >#                 when this entry is missing, select all common levels of this list
(PID.TID 0000.0001) >#  fields(:,n) : list of diagnostics fields (8.c) (see "available_diagnostics" file
(PID.TID 0000.0001) >#                 for the list of all available diag. in this particular config)
(PID.TID 0000.0001) >#--------------------------------------------------------------------
(PID.TID 0000.0001) >#
(PID.TID 0000.0001) > &diagnostics_list
(PID.TID 0000.0001) >#
(PID.TID 0000.0001) >   dumpatlast = .TRUE.,
(PID.TID 0000.0001) >   diagMdsDir = 'diags',
(PID.TID 0000.0001) >#---
(PID.TID 0000.0001) >  frequency(1) = 2635200.0,
(PID.TID 0000.0001) >   fields(1:9,1) = 'ETAN    ',
(PID.TID 0000.0001) >#stuff that is not quite state variables (and may not be quite
(PID.TID 0000.0001) >#synchroneous) but are added here to reduce number of files
(PID.TID 0000.0001) >                 'DETADT2 ','PHIBOT  ',
(PID.TID 0000.0001) >                 'MXLDEPTH','oceSPDep',
(PID.TID 0000.0001) >                 'oceQnet ','oceFWflx',
(PID.TID 0000.0001) >                 'oceTAUX ','oceTAUY ',
(PID.TID 0000.0001) >   filename(1) = 'state_2d_set1',
(PID.TID 0000.0001) >#---
(PID.TID 0000.0001) >  frequency(2) = 2635200.0,
(PID.TID 0000.0001) >   fields(1:3,2) = 'THETA   ','SALT    ',
(PID.TID 0000.0001) >#stuff that is not quite state variables (and may not be quite
(PID.TID 0000.0001) >#synchroneous) but are added here to reduce file number
(PID.TID 0000.0001) >                 'DRHODR  ',
(PID.TID 0000.0001) >#                'KPPviscA','KPPdiffT','KPPdiffTS',
(PID.TID 0000.0001) >#                'GGL90TKE','GGL90Lmx','GGL90Prl',
(PID.TID 0000.0001) >#                'GGL90ArU','GGL90ArV','GGL90Kr ',
(PID.TID 0000.0001) >   filename(2) = 'state_3d_set1',
(PID.TID 0000.0001) >#---
(PID.TID 0000.0001) >  frequency(3) = 2635200.0,
(PID.TID 0000.0001) >   fields(1:5,3) = 'UVELMASS','VVELMASS','WVELMASS',
(PID.TID 0000.0001) >                 'GM_PsiX ','GM_PsiY ',
(PID.TID 0000.0001) >#uvel is approximately uvelmass divided by initial hfac, so we dont output the former
(PID.TID 0000.0001) >#                'UVEL    ','VVEL    ','WVEL     ',
(PID.TID 0000.0001) >#full 3D temperature fluxes : 'DFxE_TH ','DFyE_TH ','DFrE_TH ','DFrI_TH ','ADVx_TH ','ADVy_TH ','ADVr_TH ',
(PID.TID 0000.0001) >#but for present computations I only need the vertically integrated horizontal components (see trsp_3d_set2)
(PID.TID 0000.0001) >   filename(3) = 'trsp_3d_set1',
(PID.TID 0000.0001) >#---
(PID.TID 0000.0001) >  frequency(4) = 2635200.0,
(PID.TID 0000.0001) >   fields(1:8,4) = 'DFxE_TH ','DFyE_TH ','ADVx_TH ','ADVy_TH ',
(PID.TID 0000.0001) >                 'DFxE_SLT','DFyE_SLT','ADVx_SLT','ADVy_SLT',
(PID.TID 0000.0001) >   filename(4) = 'trsp_3d_set2',
(PID.TID 0000.0001) >#vertically integrate fields we only use to compute vertically integr.
(PID.TID 0000.0001) >#meridional transports (also omit vertical transports, both to save space)
(PID.TID 0000.0001) >#---
(PID.TID 0000.0001) >  frequency(5) = -2635200.0,
(PID.TID 0000.0001) >   fields(1:2,5) = 'ETAN    ',
(PID.TID 0000.0001) >                   'PHIBOT  ',
(PID.TID 0000.0001) >#  filename(5) = 'budg2d_snap_set1',
(PID.TID 0000.0001) >   timePhase(5)= 0.,
(PID.TID 0000.0001) >   fileFlags(5) = 'D       ',
(PID.TID 0000.0001) >#---
(PID.TID 0000.0001) >  frequency(6) = -2635200.0,
(PID.TID 0000.0001) >   fields(1:2,6) = 'THETA   ','SALT    ',
(PID.TID 0000.0001) >#  filename(6) = 'budg2d_snap_set2',
(PID.TID 0000.0001) >   timePhase(6)= 0.,
(PID.TID 0000.0001) >   fileFlags(6) = 'DI      ',
(PID.TID 0000.0001) >#---
(PID.TID 0000.0001) >  frequency(7) = 2635200.0,
(PID.TID 0000.0001) >   fields(1:4,7) = 'oceFWflx','TFLUX   ',
(PID.TID 0000.0001) >                   'SFLUX   ','oceQsw  ',
(PID.TID 0000.0001) >#  filename(7) = 'budg2d_zflux_set1',
(PID.TID 0000.0001) >   fileFlags(7) = 'D       ',
(PID.TID 0000.0001) >#---
(PID.TID 0000.0001) >  frequency(8) = 2635200.0,
(PID.TID 0000.0001) >   fields(1:13,8) ='UVELMASS','VVELMASS',
(PID.TID 0000.0001) >                 'ADVx_TH ','ADVy_TH ','DFxE_TH ','DFyE_TH ',
(PID.TID 0000.0001) >                 'ADVx_SLT','ADVy_SLT','DFxE_SLT','DFyE_SLT',
(PID.TID 0000.0001) >#the following are not transports but tendencies
(PID.TID 0000.0001) >                 'oceSPtnd','AB_gT   ','AB_gS   ',
(PID.TID 0000.0001) >#  filename(8) = 'budg2d_hflux_set2',
(PID.TID 0000.0001) >   fileFlags(8) = 'DI      ',
(PID.TID 0000.0001) >#---
(PID.TID 0000.0001) ># this one is important because it activates the vertical advection diags
(PID.TID 0000.0001) >  frequency(9) = 2635200.0,
(PID.TID 0000.0001) >   fields(1:7,9) = 'ADVr_TH ','DFrE_TH ','DFrI_TH ',
(PID.TID 0000.0001) >                  'ADVr_SLT','DFrE_SLT','DFrI_SLT',
(PID.TID 0000.0001) >                  'WVELMASS',
(PID.TID 0000.0001) >#  filename(9) = 'budg2d_zflux_set3_11',
(PID.TID 0000.0001) >   levels(1, 9)= 11.,
(PID.TID 0000.0001) >   fileFlags(9) = 'D       ',
(PID.TID 0000.0001) >#---
(PID.TID 0000.0001) >  frequency(10) = 2635200.0,
(PID.TID 0000.0001) >   fields(1:6,10) ='SRELAX  ','TRELAX  ','WTHMASS ','WSLTMASS',
(PID.TID 0000.0001) >                 'oceSflux','oceQnet ',
(PID.TID 0000.0001) >#  filename(10) = 'budg2d_zflux_set2',
(PID.TID 0000.0001) >   fileFlags(10) = 'D       ',
(PID.TID 0000.0001) >#---
(PID.TID 0000.0001) >  frequency(11) = 2635200.0,
(PID.TID 0000.0001) >   fields(1:13,11) ='UVELMASS','VVELMASS',
(PID.TID 0000.0001) >                 'ADVx_TH ','ADVy_TH ','DFxE_TH ','DFyE_TH ',
(PID.TID 0000.0001) >                 'ADVx_SLT','ADVy_SLT','DFxE_SLT','DFyE_SLT',
(PID.TID 0000.0001) >                 'oceSPtnd','AB_gT   ','AB_gS   ',
(PID.TID 0000.0001) >#  filename(11) = 'budg2d_hflux_set3_11',
(PID.TID 0000.0001) >   levels(1:40,11) = 11.,12.,13.,14.,15.,16.,17.,18.,19.,20.,
(PID.TID 0000.0001) >                     21.,22.,23.,24.,25.,26.,27.,28.,29.,30.,
(PID.TID 0000.0001) >                     31.,32.,33.,34.,35.,36.,37.,38.,39.,40.,
(PID.TID 0000.0001) >                     41.,42.,43.,44.,45.,46.,47.,48.,49.,50.,
(PID.TID 0000.0001) >   fileFlags(11) = 'DI      ',
(PID.TID 0000.0001) >#---
(PID.TID 0000.0001) >  frequency(12) = -2635200.0,
(PID.TID 0000.0001) >   fields(1:2,12) = 'THETA   ','SALT    ',
(PID.TID 0000.0001) >#  filename(12) = 'budg2d_snap_set3_11',
(PID.TID 0000.0001) >   timePhase(12)= 0.,
(PID.TID 0000.0001) >   levels(1:40,12) = 11.,12.,13.,14.,15.,16.,17.,18.,19.,20.,
(PID.TID 0000.0001) >                     21.,22.,23.,24.,25.,26.,27.,28.,29.,30.,
(PID.TID 0000.0001) >                     31.,32.,33.,34.,35.,36.,37.,38.,39.,40.,
(PID.TID 0000.0001) >                     41.,42.,43.,44.,45.,46.,47.,48.,49.,50.,
(PID.TID 0000.0001) >   fileFlags(12) = 'DI      ',
(PID.TID 0000.0001) >#---
(PID.TID 0000.0001) >  frequency(13) = 2635200.0,
(PID.TID 0000.0001) >   fields(1:8,13) = 'DFxE_TH ','DFyE_TH ','ADVx_TH ','ADVy_TH ',
(PID.TID 0000.0001) >                 'DFxE_SLT','DFyE_SLT','ADVx_SLT','ADVy_SLT',
(PID.TID 0000.0001) >#  filename(13) = 'trsp_2d_set1',
(PID.TID 0000.0001) >#vertically integrate fields we only use to compute vertically integr.
(PID.TID 0000.0001) >#meridional transports (also omit vertical transports, both to save space)
(PID.TID 0000.0001) >   fileFlags(13) = ' I      ',
(PID.TID 0000.0001) >#---
(PID.TID 0000.0001) >  frequency(14) = 2635200.0,
(PID.TID 0000.0001) >   fields(1:3,14) = 'RHOAnoma','PHIHYD  ','oceSPtnd',
(PID.TID 0000.0001) >#  filename(14) = 'state_3d_set2',
(PID.TID 0000.0001) >#---
(PID.TID 0000.0001) >  frequency(15) = 2635200.0,
(PID.TID 0000.0001) >   fields(1:7,15) = 'ADVr_TH ','DFrE_TH ','DFrI_TH ',
(PID.TID 0000.0001) >        'ADVr_SLT','DFrE_SLT','DFrI_SLT','WVELMASS',
(PID.TID 0000.0001) >#  filename(15) = 'trsp_3d_set3',
(PID.TID 0000.0001) >#---
(PID.TID 0000.0001) >  frequency(16) = 2635200.0,
(PID.TID 0000.0001) >   fields(1:4,16) = 'TFLUX   ','SFLUX   ',
(PID.TID 0000.0001) >        'oceQsw  ','oceSPflx',
(PID.TID 0000.0001) >#  filename(16) = 'state_2d_set2',
(PID.TID 0000.0001) >#---
(PID.TID 0000.0001) > &
(PID.TID 0000.0001) >#
(PID.TID 0000.0001) >#
(PID.TID 0000.0001) ># Parameter for Diagnostics of per level statistics:
(PID.TID 0000.0001) >#-----------------
(PID.TID 0000.0001) ># for each output-stream:
(PID.TID 0000.0001) >#  stat_fname(n) : prefix of the output file name (only 8.c long) for outp.stream n
(PID.TID 0000.0001) >#  stat_freq(n):< 0 : write snap-shot output every |stat_freq| seconds
(PID.TID 0000.0001) >#               > 0 : write time-average output every stat_freq seconds
(PID.TID 0000.0001) >#  stat_phase(n)    : write at time = stat_phase + multiple of |stat_freq|
(PID.TID 0000.0001) >#  stat_region(:,n) : list of "regions" (default: 1 region only=global)
(PID.TID 0000.0001) >#  stat_fields(:,n) : list of diagnostics fields (8.c) (see "available_diagnostics.log"
(PID.TID 0000.0001) >#                 file for the list of all available diag. in this particular config)
(PID.TID 0000.0001) >#-----------------
(PID.TID 0000.0001) > &DIAG_STATIS_PARMS
(PID.TID 0000.0001) ># diagSt_regMaskFile='basin_masks_eccollc_90x50.bin',
(PID.TID 0000.0001) ># nSetRegMskFile=1,
(PID.TID 0000.0001) ># set_regMask(1)= 1,  1,  1,  1,  1,  1,  1,  1,  1,
(PID.TID 0000.0001) >#                 1,  1,  1,  1,  1,  1,  1,  1
(PID.TID 0000.0001) ># val_regMask(1)= 1., 2., 3., 4., 5., 6., 7., 8., 9.,
(PID.TID 0000.0001) >#                10.,11.,12.,13.,14.,15.,16.,17.
(PID.TID 0000.0001) >##---
(PID.TID 0000.0001) ># stat_fields(1,1)= 'ETAN    ','ETANSQ  ','DETADT2 ',
(PID.TID 0000.0001) >#                   'UVEL    ','VVEL    ','WVEL    ',
(PID.TID 0000.0001) >#                   'THETA   ','SALT    ',
(PID.TID 0000.0001) >#    stat_fname(1)= 'dynStDiag',
(PID.TID 0000.0001) >#     stat_freq(1)= 3153600.,
(PID.TID 0000.0001) ># stat_region(1,1)=  1, 2, 3, 4, 5, 6, 7, 8, 9,
(PID.TID 0000.0001) >#                   10,11,12,13,14,15,16,17
(PID.TID 0000.0001) >##---
(PID.TID 0000.0001) ># stat_fields(1,2)= 'oceTAUX ','oceTAUY ',
(PID.TID 0000.0001) >#                   'surForcT','surForcS','TFLUX   ','SFLUX   ',
(PID.TID 0000.0001) >#                   'oceQnet ','oceSflux','oceFWflx',
(PID.TID 0000.0001) >#    stat_fname(2)= 'surfStDiag',
(PID.TID 0000.0001) >#     stat_freq(2)= 3153600.,
(PID.TID 0000.0001) ># stat_region(1,2)=  1, 2, 3, 4, 5, 6, 7, 8, 9,
(PID.TID 0000.0001) >#                   10,11,12,13,14,15,16,17
(PID.TID 0000.0001) > &
(PID.TID 0000.0001) 
(PID.TID 0000.0001) S/R DIAGNOSTICS_READPARMS, read namelist "diagnostics_list": start
(PID.TID 0000.0001) S/R DIAGNOSTICS_READPARMS, read namelist "diagnostics_list": OK
(PID.TID 0000.0001) S/R DIAGNOSTICS_READPARMS, read namelist "DIAG_STATIS_PARMS": start
(PID.TID 0000.0001) S/R DIAGNOSTICS_READPARMS, read namelist "DIAG_STATIS_PARMS": OK
(PID.TID 0000.0001)  DIAGNOSTICS_READPARMS: global parameter summary:
(PID.TID 0000.0001)  dumpAtLast = /* always write time-ave diags at the end */
(PID.TID 0000.0001)                   T
(PID.TID 0000.0001)     ;
(PID.TID 0000.0001)  diag_mnc =   /* write NetCDF output files */
(PID.TID 0000.0001)                   F
(PID.TID 0000.0001)     ;
(PID.TID 0000.0001)  diagMdsDir = /* directory for mds diagnostics output */
(PID.TID 0000.0001)               'diags'
(PID.TID 0000.0001)     ;
(PID.TID 0000.0001)  diagMdsDirCreate = /* call mkdir to create diagMdsDir */
(PID.TID 0000.0001)                   T
(PID.TID 0000.0001)     ;
(PID.TID 0000.0001)  useMissingValue = /* put MissingValue where mask = 0 */
(PID.TID 0000.0001)                   F
(PID.TID 0000.0001)     ;
(PID.TID 0000.0001)  diagCG_maxIters = /* max number of iters in diag_cg2d */
(PID.TID 0000.0001)                     300
(PID.TID 0000.0001)     ;
(PID.TID 0000.0001)  diagCG_resTarget = /* residual target for diag_cg2d */
(PID.TID 0000.0001)                 1.000000000000000E-07
(PID.TID 0000.0001)     ;
(PID.TID 0000.0001)  diagCG_pcOffDFac = /* preconditioner off-diagonal factor */
(PID.TID 0000.0001)                 9.611687812379854E-01
(PID.TID 0000.0001)     ;
(PID.TID 0000.0001) -----------------------------------------------------
(PID.TID 0000.0001)  DIAGNOSTICS_READPARMS: active diagnostics summary:
(PID.TID 0000.0001) -----------------------------------------------------
(PID.TID 0000.0001) Creating Output Stream: state_2d_set1
(PID.TID 0000.0001) Output Frequency:    2635200.000000 ; Phase:           0.000000
(PID.TID 0000.0001)  Averaging Freq.:    2635200.000000 , Phase:           0.000000 , Cycle:   1
(PID.TID 0000.0001)  missing value: -9.990000000000E+02
(PID.TID 0000.0001)  Levels:    will be set later
(PID.TID 0000.0001)  Fields:    ETAN     DETADT2  PHIBOT   MXLDEPTH oceSPDep oceQnet  oceFWflx oceTAUX  oceTAUY
(PID.TID 0000.0001) Creating Output Stream: state_3d_set1
(PID.TID 0000.0001) Output Frequency:    2635200.000000 ; Phase:           0.000000
(PID.TID 0000.0001)  Averaging Freq.:    2635200.000000 , Phase:           0.000000 , Cycle:   1
(PID.TID 0000.0001)  missing value: -9.990000000000E+02
(PID.TID 0000.0001)  Levels:    will be set later
(PID.TID 0000.0001)  Fields:    THETA    SALT     DRHODR
(PID.TID 0000.0001) Creating Output Stream: trsp_3d_set1
(PID.TID 0000.0001) Output Frequency:    2635200.000000 ; Phase:           0.000000
(PID.TID 0000.0001)  Averaging Freq.:    2635200.000000 , Phase:           0.000000 , Cycle:   1
(PID.TID 0000.0001)  missing value: -9.990000000000E+02
(PID.TID 0000.0001)  Levels:    will be set later
(PID.TID 0000.0001)  Fields:    UVELMASS VVELMASS WVELMASS GM_PsiX  GM_PsiY
(PID.TID 0000.0001) Creating Output Stream: trsp_3d_set2
(PID.TID 0000.0001) Output Frequency:    2635200.000000 ; Phase:           0.000000
(PID.TID 0000.0001)  Averaging Freq.:    2635200.000000 , Phase:           0.000000 , Cycle:   1
(PID.TID 0000.0001)  missing value: -9.990000000000E+02
(PID.TID 0000.0001)  Levels:    will be set later
(PID.TID 0000.0001)  Fields:    DFxE_TH  DFyE_TH  ADVx_TH  ADVy_TH  DFxE_SLT DFyE_SLT ADVx_SLT ADVy_SLT
(PID.TID 0000.0001) -----------------------------------------------------
(PID.TID 0000.0001)  DIAGNOSTICS_READPARMS: statistics diags. summary:
(PID.TID 0000.0001) -----------------------------------------------------
(PID.TID 0000.0001) 
(PID.TID 0000.0001) SET_PARMS: done
 ==> SYSTEM CALL (from DIAGNOSTICS_INI_IO): > mkdir -p diags <
(PID.TID 0000.0001) 
(PID.TID 0000.0001) Enter INI_VERTICAL_GRID: setInterFDr=    T ; setCenterDr=    F
(PID.TID 0000.0001) tile:   4 ; Read from file tile001.mitgrid
(PID.TID 0000.0001)   => xC yC dxF dyF rA xG yG dxV dyU rAz dxC dyC rAw rAs dxG dyG
(PID.TID 0000.0001) %MON XC_max                       =   1.7997758946678E+02
(PID.TID 0000.0001) %MON XC_min                       =  -1.7998895680928E+02
(PID.TID 0000.0001) %MON XC_mean                      =  -6.8997670631350E+00
(PID.TID 0000.0001) %MON XC_sd                        =   1.0548127462941E+02
(PID.TID 0000.0001) %MON XG_max                       =   1.8000000000000E+02
(PID.TID 0000.0001) %MON XG_min                       =  -1.7999919444240E+02
(PID.TID 0000.0001) %MON XG_mean                      =  -6.3521159278861E+00
(PID.TID 0000.0001) %MON XG_sd                        =   1.0549598176576E+02
(PID.TID 0000.0001) %MON DXC_max                      =   1.1117680031365E+05
(PID.TID 0000.0001) %MON DXC_min                      =   1.3362789164732E+04
(PID.TID 0000.0001) %MON DXC_mean                     =   7.1345115143606E+04
(PID.TID 0000.0001) %MON DXC_sd                       =   2.6107013089865E+04
(PID.TID 0000.0001) %MON DXF_max                      =   1.1117680031365E+05
(PID.TID 0000.0001) %MON DXF_min                      =   1.3491575949394E+04
(PID.TID 0000.0001) %MON DXF_mean                     =   7.1334806791260E+04
(PID.TID 0000.0001) %MON DXF_sd                       =   2.6121349328995E+04
(PID.TID 0000.0001) %MON DXG_max                      =   1.1117747335204E+05
(PID.TID 0000.0001) %MON DXG_min                      =   1.0930409249570E+04
(PID.TID 0000.0001) %MON DXG_mean                     =   7.1313583950284E+04
(PID.TID 0000.0001) %MON DXG_sd                       =   2.6131714747840E+04
(PID.TID 0000.0001) %MON DXV_max                      =   1.1117747335204E+05
(PID.TID 0000.0001) %MON DXV_min                      =   9.4742518926426E+03
(PID.TID 0000.0001) %MON DXV_mean                     =   7.1323777998314E+04
(PID.TID 0000.0001) %MON DXV_sd                       =   2.6117603792432E+04
(PID.TID 0000.0001) %MON YC_max                       =   8.9739397429324E+01
(PID.TID 0000.0001) %MON YC_min                       =  -8.1637173529390E+01
(PID.TID 0000.0001) %MON YC_mean                      =  -5.9338515025079E-01
(PID.TID 0000.0001) %MON YC_sd                        =   5.1058908630085E+01
(PID.TID 0000.0001) %MON YG_max                       =   9.0000000000000E+01
(PID.TID 0000.0001) %MON YG_min                       =  -8.1805478609906E+01
(PID.TID 0000.0001) %MON YG_mean                      =  -5.7357831765458E-01
(PID.TID 0000.0001) %MON YG_sd                        =   5.1060174609345E+01
(PID.TID 0000.0001) %MON DYC_max                      =   1.1117680031365E+05
(PID.TID 0000.0001) %MON DYC_min                      =   1.3362789164732E+04
(PID.TID 0000.0001) %MON DYC_mean                     =   7.0982792089666E+04
(PID.TID 0000.0001) %MON DYC_sd                       =   2.6607387075348E+04
(PID.TID 0000.0001) %MON DYF_max                      =   1.1117680031365E+05
(PID.TID 0000.0001) %MON DYF_min                      =   1.3491575949394E+04
(PID.TID 0000.0001) %MON DYF_mean                     =   7.1000127494934E+04
(PID.TID 0000.0001) %MON DYF_sd                       =   2.6603606017547E+04
(PID.TID 0000.0001) %MON DYG_max                      =   1.1117747335204E+05
(PID.TID 0000.0001) %MON DYG_min                      =   1.0930409249570E+04
(PID.TID 0000.0001) %MON DYG_mean                     =   7.1022116512585E+04
(PID.TID 0000.0001) %MON DYG_sd                       =   2.6571715830406E+04
(PID.TID 0000.0001) %MON DYU_max                      =   1.1117747335204E+05
(PID.TID 0000.0001) %MON DYU_min                      =   9.4742518926426E+03
(PID.TID 0000.0001) %MON DYU_mean                     =   7.1004694583927E+04
(PID.TID 0000.0001) %MON DYU_sd                       =   2.6575655787476E+04
(PID.TID 0000.0001) %MON RA_max                       =   1.1896090857160E+10
(PID.TID 0000.0001) %MON RA_min                       =   2.1263387742345E+08
(PID.TID 0000.0001) %MON RA_mean                      =   5.6344293572480E+09
(PID.TID 0000.0001) %MON RA_sd                        =   3.5929461176606E+09
(PID.TID 0000.0001) %MON RAW_max                      =   1.1896090856781E+10
(PID.TID 0000.0001) %MON RAW_min                      =   1.7369571508711E+08
(PID.TID 0000.0001) %MON RAW_mean                     =   5.6355850434318E+09
(PID.TID 0000.0001) %MON RAW_sd                       =   3.5915487677190E+09
(PID.TID 0000.0001) %MON RAS_max                      =   1.1896090856781E+10
(PID.TID 0000.0001) %MON RAS_min                      =   1.7369571508711E+08
(PID.TID 0000.0001) %MON RAS_mean                     =   5.6320332286162E+09
(PID.TID 0000.0001) %MON RAS_sd                       =   3.5937184228135E+09
(PID.TID 0000.0001) %MON RAZ_max                      =   1.1891903479271E+10
(PID.TID 0000.0001) %MON RAZ_min                      =   1.0413402423292E+08
(PID.TID 0000.0001) %MON RAZ_mean                     =   5.6331824674695E+09
(PID.TID 0000.0001) %MON RAZ_sd                       =   3.5923307220197E+09
(PID.TID 0000.0001) %MON AngleCS_max                  =   1.0000000000000E+00
(PID.TID 0000.0001) %MON AngleCS_min                  =  -9.9996641938864E-01
(PID.TID 0000.0001) %MON AngleCS_mean                 =   4.0572930529500E-01
(PID.TID 0000.0001) %MON AngleCS_sd                   =   5.3874397836718E-01
(PID.TID 0000.0001) %MON AngleSN_max                  =   9.9996641938864E-01
(PID.TID 0000.0001) %MON AngleSN_min                  =  -1.0000000000000E+00
(PID.TID 0000.0001) %MON AngleSN_mean                 =  -4.9986154624599E-01
(PID.TID 0000.0001) %MON AngleSN_sd                   =   5.4339404779819E-01
(PID.TID 0000.0001) GAD_INIT_FIXED: GAD_OlMinSize=  2  0  2
(PID.TID 0000.0001) 
(PID.TID 0000.0001) // ===================================
(PID.TID 0000.0001) // GAD parameters :
(PID.TID 0000.0001) // ===================================
(PID.TID 0000.0001) tempAdvScheme =   /* Temp. Horiz.Advection scheme selector */
(PID.TID 0000.0001)                      30
(PID.TID 0000.0001)     ;
(PID.TID 0000.0001) tempVertAdvScheme =   /* Temp. Vert. Advection scheme selector */
(PID.TID 0000.0001)                       3
(PID.TID 0000.0001)     ;
(PID.TID 0000.0001) tempMultiDimAdvec =   /* use Muti-Dim Advec method for Temp */
(PID.TID 0000.0001)                   T
(PID.TID 0000.0001)     ;
(PID.TID 0000.0001) tempSOM_Advection = /* use 2nd Order Moment Advection for Temp */
(PID.TID 0000.0001)                   F
(PID.TID 0000.0001)     ;
(PID.TID 0000.0001) AdamsBashforthGt = /* apply Adams-Bashforth extrapolation on Gt */
(PID.TID 0000.0001)                   F
(PID.TID 0000.0001)     ;
(PID.TID 0000.0001) AdamsBashforth_T = /* apply Adams-Bashforth extrapolation on Temp */
(PID.TID 0000.0001)                   F
(PID.TID 0000.0001)     ;
(PID.TID 0000.0001) saltAdvScheme =   /* Salt. Horiz.advection scheme selector */
(PID.TID 0000.0001)                      30
(PID.TID 0000.0001)     ;
(PID.TID 0000.0001) saltVertAdvScheme =   /* Salt. Vert. Advection scheme selector */
(PID.TID 0000.0001)                       3
(PID.TID 0000.0001)     ;
(PID.TID 0000.0001) saltMultiDimAdvec =   /* use Muti-Dim Advec method for Salt */
(PID.TID 0000.0001)                   T
(PID.TID 0000.0001)     ;
(PID.TID 0000.0001) saltSOM_Advection = /* use 2nd Order Moment Advection for Salt */
(PID.TID 0000.0001)                   F
(PID.TID 0000.0001)     ;
(PID.TID 0000.0001) AdamsBashforthGs = /* apply Adams-Bashforth extrapolation on Gs */
(PID.TID 0000.0001)                   F
(PID.TID 0000.0001)     ;
(PID.TID 0000.0001) AdamsBashforth_S = /* apply Adams-Bashforth extrapolation on Salt */
(PID.TID 0000.0001)                   F
(PID.TID 0000.0001)     ;
(PID.TID 0000.0001) // ===================================
(PID.TID 0000.0001) ------------------------------------------------------------
(PID.TID 0000.0001) DIAGNOSTICS_SET_LEVELS: done
(PID.TID 0000.0001)  Total Nb of available Diagnostics: ndiagt=   205
(PID.TID 0000.0001)  write list of available Diagnostics to file: available_diagnostics.log
(PID.TID 0000.0001) SETDIAG: Allocate  1 x  1 Levels for Diagnostic #    23 ETAN
(PID.TID 0000.0001) SETDIAG: Allocate  1 x  1 Levels for Diagnostic #    25 DETADT2
(PID.TID 0000.0001) SETDIAG: Allocate  1 x  1 Levels for Diagnostic #    73 PHIBOT
(PID.TID 0000.0001) SETDIAG: Allocate  1 x  1 Levels for Diagnostic #    77 MXLDEPTH
(PID.TID 0000.0001) SETDIAG: Allocate  1 x  1 Levels for Diagnostic #   205 oceSPDep
(PID.TID 0000.0001) SETDIAG: Allocate  1 x  1 Levels for Diagnostic #    86 oceQnet
(PID.TID 0000.0001) SETDIAG: Allocate  1 x  1 Levels for Diagnostic #    84 oceFWflx
(PID.TID 0000.0001) SETDIAG: Allocate  1 x  1 Levels for Diagnostic #    80 oceTAUX
(PID.TID 0000.0001) SETDIAG: Allocate  1 x  1 Levels for Diagnostic #    81 oceTAUY
(PID.TID 0000.0001) SETDIAG: Allocate 50 x  1 Levels for Diagnostic #    26 THETA
(PID.TID 0000.0001) SETDIAG: Allocate 50 x  1 Levels for Diagnostic #    27 SALT
(PID.TID 0000.0001) SETDIAG: Allocate 50 x  1 Levels for Diagnostic #    78 DRHODR
(PID.TID 0000.0001) SETDIAG: Allocate 50 x  1 Levels for Diagnostic #    45 UVELMASS
(PID.TID 0000.0001) SETDIAG: Allocate 50 x  1 Levels for Diagnostic #    46 VVELMASS
(PID.TID 0000.0001) SETDIAG: Allocate 50 x  1 Levels for Diagnostic #    47 WVELMASS
(PID.TID 0000.0001) SETDIAG: Allocate 50 x  1 Levels for Diagnostic #   195 GM_PsiX
(PID.TID 0000.0001) SETDIAG: Allocate 50 x  1 Levels for Diagnostic #   196 GM_PsiY
(PID.TID 0000.0001) SETDIAG: Allocate 50 x  1 Levels for Diagnostic #   114 DFxE_TH
(PID.TID 0000.0001) SETDIAG: Allocate 50 x  1 Levels for Diagnostic #   115 DFyE_TH
(PID.TID 0000.0001) SETDIAG: Allocate 50 x  1 Levels for Diagnostic #   111 ADVx_TH
(PID.TID 0000.0001) SETDIAG: Allocate 50 x  1 Levels for Diagnostic #   112 ADVy_TH
(PID.TID 0000.0001) SETDIAG: Allocate 50 x  1 Levels for Diagnostic #   121 DFxE_SLT
(PID.TID 0000.0001) SETDIAG: Allocate 50 x  1 Levels for Diagnostic #   122 DFyE_SLT
(PID.TID 0000.0001) SETDIAG: Allocate 50 x  1 Levels for Diagnostic #   118 ADVx_SLT
(PID.TID 0000.0001) SETDIAG: Allocate 50 x  1 Levels for Diagnostic #   119 ADVy_SLT
(PID.TID 0000.0001)   space allocated for all diagnostics:     809 levels
(PID.TID 0000.0001)   set mate pointer for diag #    80  oceTAUX  , Parms: UU      U1 , mate:    81
(PID.TID 0000.0001)   set mate pointer for diag #    81  oceTAUY  , Parms: VV      U1 , mate:    80
(PID.TID 0000.0001)   set mate pointer for diag #    45  UVELMASS , Parms: UUr     MR , mate:    46
(PID.TID 0000.0001)   set mate pointer for diag #    46  VVELMASS , Parms: VVr     MR , mate:    45
(PID.TID 0000.0001)   set mate pointer for diag #   195  GM_PsiX  , Parms: UU      LR , mate:   196
(PID.TID 0000.0001)   set mate pointer for diag #   196  GM_PsiY  , Parms: VV      LR , mate:   195
(PID.TID 0000.0001)   set mate pointer for diag #   114  DFxE_TH  , Parms: UU      MR , mate:   115
(PID.TID 0000.0001)   set mate pointer for diag #   115  DFyE_TH  , Parms: VV      MR , mate:   114
(PID.TID 0000.0001)   set mate pointer for diag #   111  ADVx_TH  , Parms: UU      MR , mate:   112
(PID.TID 0000.0001)   set mate pointer for diag #   112  ADVy_TH  , Parms: VV      MR , mate:   111
(PID.TID 0000.0001)   set mate pointer for diag #   121  DFxE_SLT , Parms: UU      MR , mate:   122
(PID.TID 0000.0001)   set mate pointer for diag #   122  DFyE_SLT , Parms: VV      MR , mate:   121
(PID.TID 0000.0001)   set mate pointer for diag #   118  ADVx_SLT , Parms: UU      MR , mate:   119
(PID.TID 0000.0001)   set mate pointer for diag #   119  ADVy_SLT , Parms: VV      MR , mate:   118
(PID.TID 0000.0001) DIAGNOSTICS_SET_POINTERS: Set levels for Outp.Stream: state_2d_set1
(PID.TID 0000.0001)  Levels:       1.
(PID.TID 0000.0001) DIAGNOSTICS_SET_POINTERS: Set levels for Outp.Stream: state_3d_set1
(PID.TID 0000.0001)  Levels:       1.   2.   3.   4.   5.   6.   7.   8.   9.  10.  11.  12.  13.  14.  15.  16.  17.  18.  19.  20.
(PID.TID 0000.0001)  Levels:      21.  22.  23.  24.  25.  26.  27.  28.  29.  30.  31.  32.  33.  34.  35.  36.  37.  38.  39.  40.
(PID.TID 0000.0001)  Levels:      41.  42.  43.  44.  45.  46.  47.  48.  49.  50.
(PID.TID 0000.0001) DIAGNOSTICS_SET_POINTERS: Set levels for Outp.Stream: trsp_3d_set1
(PID.TID 0000.0001)  Levels:       1.   2.   3.   4.   5.   6.   7.   8.   9.  10.  11.  12.  13.  14.  15.  16.  17.  18.  19.  20.
(PID.TID 0000.0001)  Levels:      21.  22.  23.  24.  25.  26.  27.  28.  29.  30.  31.  32.  33.  34.  35.  36.  37.  38.  39.  40.
(PID.TID 0000.0001)  Levels:      41.  42.  43.  44.  45.  46.  47.  48.  49.  50.
(PID.TID 0000.0001) DIAGNOSTICS_SET_POINTERS: Set levels for Outp.Stream: trsp_3d_set2
(PID.TID 0000.0001)  Levels:       1.   2.   3.   4.   5.   6.   7.   8.   9.  10.  11.  12.  13.  14.  15.  16.  17.  18.  19.  20.
(PID.TID 0000.0001)  Levels:      21.  22.  23.  24.  25.  26.  27.  28.  29.  30.  31.  32.  33.  34.  35.  36.  37.  38.  39.  40.
(PID.TID 0000.0001)  Levels:      41.  42.  43.  44.  45.  46.  47.  48.  49.  50.
(PID.TID 0000.0001) DIAGNOSTICS_SET_POINTERS: done
(PID.TID 0000.0001) ------------------------------------------------------------
(PID.TID 0000.0001) DIAGSTATS_SET_REGIONS: define   0 regions:
(PID.TID 0000.0001) ------------------------------------------------------------
(PID.TID 0000.0001)   space allocated for all stats-diags:       0 levels
(PID.TID 0000.0001) DIAGSTATS_SET_POINTERS: done
(PID.TID 0000.0001) ------------------------------------------------------------
(PID.TID 0000.0001) INI_GLOBAL_DOMAIN: Found   0 CS-corner Pts in the domain
(PID.TID 0000.0001) %MON fCori_max                    =   1.4584096177006E-04
(PID.TID 0000.0001) %MON fCori_min                    =  -1.4429171327635E-04
(PID.TID 0000.0001) %MON fCori_mean                   =  -1.9531894197173E-06
(PID.TID 0000.0001) %MON fCori_sd                     =   1.0434730642309E-04
(PID.TID 0000.0001) %MON fCoriG_max                   =   1.4584247033981E-04
(PID.TID 0000.0001) %MON fCoriG_min                   =  -1.4435339896041E-04
(PID.TID 0000.0001) %MON fCoriG_mean                  =  -1.9303770726087E-06
(PID.TID 0000.0001) %MON fCoriG_sd                    =   1.0435958182593E-04
(PID.TID 0000.0001) %MON fCoriCos_max                 =   1.4584158744890E-04
(PID.TID 0000.0001) %MON fCoriCos_min                 =   6.6334365221135E-07
(PID.TID 0000.0001) %MON fCoriCos_mean                =   9.3876998486639E-05
(PID.TID 0000.0001) %MON fCoriCos_sd                  =   3.9559575367967E-05
(PID.TID 0000.0001) INI_CG2D: CG2D normalisation factor =  7.1522409280111305E-05
(PID.TID 0000.0001) INI_CG2D: cg2dTolerance = 2.845112656120382E-05 (Area=3.5801386115E+14)
(PID.TID 0000.0001) 
(PID.TID 0000.0001) // =======================================================
(PID.TID 0000.0001) // Model configuration
(PID.TID 0000.0001) // =======================================================
(PID.TID 0000.0001) //
(PID.TID 0000.0001) // "Physical" paramters ( PARM01 in namelist )
(PID.TID 0000.0001) //
(PID.TID 0000.0001) buoyancyRelation = /* Type of relation to get Buoyancy */
(PID.TID 0000.0001)               'OCEANIC'
(PID.TID 0000.0001)     ;
(PID.TID 0000.0001) fluidIsAir   =  /* fluid major constituent is Air */
(PID.TID 0000.0001)                   F
(PID.TID 0000.0001)     ;
(PID.TID 0000.0001) fluidIsWater =  /* fluid major constituent is Water */
(PID.TID 0000.0001)                   T
(PID.TID 0000.0001)     ;
(PID.TID 0000.0001) usingPCoords =  /* use p (or p*) vertical coordinate */
(PID.TID 0000.0001)                   F
(PID.TID 0000.0001)     ;
(PID.TID 0000.0001) usingZCoords =  /* use z (or z*) vertical coordinate */
(PID.TID 0000.0001)                   T
(PID.TID 0000.0001)     ;
(PID.TID 0000.0001) tRef =   /* Reference temperature profile ( oC or K ) */
(PID.TID 0000.0001)     3 @  2.300000000000000E+01,             /* K =  1:  3 */
(PID.TID 0000.0001)     3 @  2.200000000000000E+01,             /* K =  4:  6 */
(PID.TID 0000.0001)                 2.100000000000000E+01,      /* K =  7 */
(PID.TID 0000.0001)     2 @  2.000000000000000E+01,             /* K =  8:  9 */
(PID.TID 0000.0001)                 1.900000000000000E+01,      /* K = 10 */
(PID.TID 0000.0001)     2 @  1.800000000000000E+01,             /* K = 11: 12 */
(PID.TID 0000.0001)                 1.700000000000000E+01,      /* K = 13 */
(PID.TID 0000.0001)     2 @  1.600000000000000E+01,             /* K = 14: 15 */
(PID.TID 0000.0001)                 1.500000000000000E+01,      /* K = 16 */
(PID.TID 0000.0001)                 1.400000000000000E+01,      /* K = 17 */
(PID.TID 0000.0001)                 1.300000000000000E+01,      /* K = 18 */
(PID.TID 0000.0001)                 1.200000000000000E+01,      /* K = 19 */
(PID.TID 0000.0001)                 1.100000000000000E+01,      /* K = 20 */
(PID.TID 0000.0001)     2 @  9.000000000000000E+00,             /* K = 21: 22 */
(PID.TID 0000.0001)                 8.000000000000000E+00,      /* K = 23 */
(PID.TID 0000.0001)                 7.000000000000000E+00,      /* K = 24 */
(PID.TID 0000.0001)     2 @  6.000000000000000E+00,             /* K = 25: 26 */
(PID.TID 0000.0001)     2 @  5.000000000000000E+00,             /* K = 27: 28 */
(PID.TID 0000.0001)     3 @  4.000000000000000E+00,             /* K = 29: 31 */
(PID.TID 0000.0001)     3 @  3.000000000000000E+00,             /* K = 32: 34 */
(PID.TID 0000.0001)     4 @  2.000000000000000E+00,             /* K = 35: 38 */
(PID.TID 0000.0001)    12 @  1.000000000000000E+00              /* K = 39: 50 */
(PID.TID 0000.0001)     ;
(PID.TID 0000.0001) sRef =   /* Reference salinity profile ( psu ) */
(PID.TID 0000.0001)    50 @  3.450000000000000E+01              /* K =  1: 50 */
(PID.TID 0000.0001)     ;
(PID.TID 0000.0001) useStrainTensionVisc= /* Use StrainTension Form of Viscous Operator */
(PID.TID 0000.0001)                   F
(PID.TID 0000.0001)     ;
(PID.TID 0000.0001) useVariableVisc = /* Use variable horizontal viscosity */
(PID.TID 0000.0001)                   T
(PID.TID 0000.0001)     ;
(PID.TID 0000.0001) useHarmonicVisc = /* Use harmonic horizontal viscosity */
(PID.TID 0000.0001)                   T
(PID.TID 0000.0001)     ;
(PID.TID 0000.0001) useBiharmonicVisc= /* Use biharmonic horiz.  viscosity */
(PID.TID 0000.0001)                   T
(PID.TID 0000.0001)     ;
(PID.TID 0000.0001) useSmag3D = /* Use isotropic 3-D Smagorinsky viscosity */
(PID.TID 0000.0001)                   F
(PID.TID 0000.0001)     ;
(PID.TID 0000.0001) viscAh  =   /* Lateral harmonic viscosity ( m^2/s ) */
(PID.TID 0000.0001)                 1.000000000000000E+00
(PID.TID 0000.0001)     ;
(PID.TID 0000.0001) viscAhMax = /* Maximum lateral harmonic viscosity ( m^2/s ) */
(PID.TID 0000.0001)                 1.000000000000000E+21
(PID.TID 0000.0001)     ;
(PID.TID 0000.0001) viscAhGrid = /* Grid dependent lateral harmonic viscosity ( non-dim. ) */
(PID.TID 0000.0001)                 2.000000000000000E-02
(PID.TID 0000.0001)     ;
(PID.TID 0000.0001) useFullLeith = /* Use Full Form of Leith Viscosity on/off flag*/
(PID.TID 0000.0001)                   F
(PID.TID 0000.0001)     ;
(PID.TID 0000.0001) useAreaViscLength = /* Use area for visc length instead of geom. mean*/
(PID.TID 0000.0001)                   F
(PID.TID 0000.0001)     ;
(PID.TID 0000.0001) viscC2leith = /* Leith harmonic visc. factor (on grad(vort),non-dim.) */
(PID.TID 0000.0001)                 0.000000000000000E+00
(PID.TID 0000.0001)     ;
(PID.TID 0000.0001) viscC2leithD = /* Leith harmonic viscosity factor (on grad(div),non-dim.)*/
(PID.TID 0000.0001)                 0.000000000000000E+00
(PID.TID 0000.0001)     ;
(PID.TID 0000.0001) viscC2smag = /* Smagorinsky harmonic viscosity factor (non-dim.) */
(PID.TID 0000.0001)                 0.000000000000000E+00
(PID.TID 0000.0001)     ;
(PID.TID 0000.0001) viscA4  =   /* Lateral biharmonic viscosity ( m^4/s ) */
(PID.TID 0000.0001)                 0.000000000000000E+00
(PID.TID 0000.0001)     ;
(PID.TID 0000.0001) viscA4Max = /* Maximum biharmonic viscosity ( m^2/s ) */
(PID.TID 0000.0001)                 1.000000000000000E+21
(PID.TID 0000.0001)     ;
(PID.TID 0000.0001) viscA4Grid = /* Grid dependent biharmonic viscosity ( non-dim. ) */
(PID.TID 0000.0001)                 0.000000000000000E+00
(PID.TID 0000.0001)     ;
(PID.TID 0000.0001) viscC4leith = /* Leith biharm viscosity factor (on grad(vort), non-dim.)*/
(PID.TID 0000.0001)                 0.000000000000000E+00
(PID.TID 0000.0001)     ;
(PID.TID 0000.0001) viscC4leithD = /* Leith biharm viscosity factor (on grad(div), non-dim.) */
(PID.TID 0000.0001)                 0.000000000000000E+00
(PID.TID 0000.0001)     ;
(PID.TID 0000.0001) viscC4Smag = /* Smagorinsky biharm viscosity factor (non-dim) */
(PID.TID 0000.0001)                 0.000000000000000E+00
(PID.TID 0000.0001)     ;
(PID.TID 0000.0001) no_slip_sides =  /* Viscous BCs: No-slip sides */
(PID.TID 0000.0001)                   T
(PID.TID 0000.0001)     ;
(PID.TID 0000.0001) sideDragFactor = /* side-drag scaling factor (non-dim) */
(PID.TID 0000.0001)                 2.000000000000000E+00
(PID.TID 0000.0001)     ;
(PID.TID 0000.0001) viscArNr = /* vertical profile of vertical viscosity ( m^2/s )*/
(PID.TID 0000.0001)    50 @  5.000000000000000E-05              /* K =  1: 50 */
(PID.TID 0000.0001)     ;
(PID.TID 0000.0001) no_slip_bottom =  /* Viscous BCs: No-slip bottom */
(PID.TID 0000.0001)                   T
(PID.TID 0000.0001)     ;
(PID.TID 0000.0001) bottomVisc_pCell = /* Partial-cell in bottom Visc. BC */
(PID.TID 0000.0001)                   F
(PID.TID 0000.0001)     ;
(PID.TID 0000.0001) bottomDragLinear = /* linear bottom-drag coefficient ( m/s ) */
(PID.TID 0000.0001)                 0.000000000000000E+00
(PID.TID 0000.0001)     ;
(PID.TID 0000.0001) bottomDragQuadratic = /* quadratic bottom-drag coefficient (-) */
(PID.TID 0000.0001)                 1.000000000000000E-03
(PID.TID 0000.0001)     ;
(PID.TID 0000.0001) selectBotDragQuadr = /* select quadratic bottom drag options */
(PID.TID 0000.0001)                       0
(PID.TID 0000.0001)     ;
(PID.TID 0000.0001) diffKhT =   /* Laplacian diffusion of heat laterally ( m^2/s ) */
(PID.TID 0000.0001)                 1.000000000000000E+01
(PID.TID 0000.0001)     ;
(PID.TID 0000.0001) diffK4T =   /* Biharmonic diffusion of heat laterally ( m^4/s ) */
(PID.TID 0000.0001)                 0.000000000000000E+00
(PID.TID 0000.0001)     ;
(PID.TID 0000.0001) diffKhS =   /* Laplacian diffusion of salt laterally ( m^2/s ) */
(PID.TID 0000.0001)                 1.000000000000000E+01
(PID.TID 0000.0001)     ;
(PID.TID 0000.0001) diffK4S =   /* Biharmonic diffusion of salt laterally ( m^4/s ) */
(PID.TID 0000.0001)                 0.000000000000000E+00
(PID.TID 0000.0001)     ;
(PID.TID 0000.0001) diffKrNrT = /* vertical profile of vertical diffusion of Temp ( m^2/s )*/
(PID.TID 0000.0001)    50 @  1.000000000000000E-05              /* K =  1: 50 */
(PID.TID 0000.0001)     ;
(PID.TID 0000.0001) diffKrNrS = /* vertical profile of vertical diffusion of Salt ( m^2/s )*/
(PID.TID 0000.0001)    50 @  1.000000000000000E-05              /* K =  1: 50 */
(PID.TID 0000.0001)     ;
(PID.TID 0000.0001) diffKrBL79surf = /* Surface diffusion for Bryan and Lewis 79 ( m^2/s ) */
(PID.TID 0000.0001)                 0.000000000000000E+00
(PID.TID 0000.0001)     ;
(PID.TID 0000.0001) diffKrBL79deep = /* Deep diffusion for Bryan and Lewis 1979 ( m^2/s ) */
(PID.TID 0000.0001)                 0.000000000000000E+00
(PID.TID 0000.0001)     ;
(PID.TID 0000.0001) diffKrBL79scl = /* Depth scale for Bryan and Lewis 1979 ( m ) */
(PID.TID 0000.0001)                 2.000000000000000E+02
(PID.TID 0000.0001)     ;
(PID.TID 0000.0001) diffKrBL79Ho = /* Turning depth for Bryan and Lewis 1979 ( m ) */
(PID.TID 0000.0001)                -2.000000000000000E+03
(PID.TID 0000.0001)     ;
(PID.TID 0000.0001) ivdc_kappa = /* Implicit Vertical Diffusivity for Convection ( m^2/s) */
(PID.TID 0000.0001)                 1.000000000000000E+01
(PID.TID 0000.0001)     ;
(PID.TID 0000.0001) hMixCriteria=  /* Criteria for mixed-layer diagnostic */
(PID.TID 0000.0001)                -8.000000000000000E-01
(PID.TID 0000.0001)     ;
(PID.TID 0000.0001) dRhoSmall =  /* Parameter for mixed-layer diagnostic */
(PID.TID 0000.0001)                 1.000000000000000E-06
(PID.TID 0000.0001)     ;
(PID.TID 0000.0001) hMixSmooth=  /* Smoothing parameter for mixed-layer diagnostic */
(PID.TID 0000.0001)                 0.000000000000000E+00
(PID.TID 0000.0001)     ;
(PID.TID 0000.0001) eosType =  /* Type of Equation of State */
(PID.TID 0000.0001)               'JMD95Z'
(PID.TID 0000.0001)     ;
(PID.TID 0000.0001) selectP_inEOS_Zc = /* select pressure to use in EOS (0,1,2,3) */
(PID.TID 0000.0001)                       0
(PID.TID 0000.0001)     0= -g*rhoConst*z ; 1= pRef (from tRef,sRef); 2= Hyd P ; 3= Hyd+NH P
(PID.TID 0000.0001)     ;
(PID.TID 0000.0001) HeatCapacity_Cp =  /* Specific heat capacity ( J/kg/K ) */
(PID.TID 0000.0001)                 3.994000000000000E+03
(PID.TID 0000.0001)     ;
(PID.TID 0000.0001) celsius2K = /* 0 degree Celsius converted to Kelvin ( K ) */
(PID.TID 0000.0001)                 2.731500000000000E+02
(PID.TID 0000.0001)     ;
(PID.TID 0000.0001) rhoConst  = /* Reference density (Boussinesq)  ( kg/m^3 ) */
(PID.TID 0000.0001)                 1.029000000000000E+03
(PID.TID 0000.0001)     ;
(PID.TID 0000.0001) rhoFacC = /* normalized Reference density @ cell-Center (-) */
(PID.TID 0000.0001)    50 @  1.000000000000000E+00              /* K =  1: 50 */
(PID.TID 0000.0001)     ;
(PID.TID 0000.0001) rhoFacF = /* normalized Reference density @ W-Interface (-) */
(PID.TID 0000.0001)    51 @  1.000000000000000E+00              /* K =  1: 51 */
(PID.TID 0000.0001)     ;
(PID.TID 0000.0001) rhoConstFresh = /* Fresh-water reference density ( kg/m^3 ) */
(PID.TID 0000.0001)                 1.000000000000000E+03
(PID.TID 0000.0001)     ;
(PID.TID 0000.0001) gravity =   /* Gravitational acceleration ( m/s^2 ) */
(PID.TID 0000.0001)                 9.810000000000000E+00
(PID.TID 0000.0001)     ;
(PID.TID 0000.0001) gBaro =   /* Barotropic gravity ( m/s^2 ) */
(PID.TID 0000.0001)                 9.810000000000000E+00
(PID.TID 0000.0001)     ;
(PID.TID 0000.0001) gravFacC = /* gravity factor (vs surf.) @ cell-Center (-) */
(PID.TID 0000.0001)    50 @  1.000000000000000E+00              /* K =  1: 50 */
(PID.TID 0000.0001)     ;
(PID.TID 0000.0001) gravFacF = /* gravity factor (vs surf.) @ W-Interface (-) */
(PID.TID 0000.0001)    51 @  1.000000000000000E+00              /* K =  1: 51 */
(PID.TID 0000.0001)     ;
(PID.TID 0000.0001) rotationPeriod =   /* Rotation Period ( s ) */
(PID.TID 0000.0001)                 8.616400000000000E+04
(PID.TID 0000.0001)     ;
(PID.TID 0000.0001) omega =   /* Angular velocity ( rad/s ) */
(PID.TID 0000.0001)                 7.292123516990375E-05
(PID.TID 0000.0001)     ;
(PID.TID 0000.0001) f0 =   /* Reference coriolis parameter ( 1/s ) */
(PID.TID 0000.0001)                 1.000000000000000E-04
(PID.TID 0000.0001)     ;
(PID.TID 0000.0001) beta =   /* Beta ( 1/(m.s) ) */
(PID.TID 0000.0001)                 9.999999999999999E-12
(PID.TID 0000.0001)     ;
(PID.TID 0000.0001) fPrime =   /* Second coriolis parameter ( 1/s ) */
(PID.TID 0000.0001)                 0.000000000000000E+00
(PID.TID 0000.0001)     ;
(PID.TID 0000.0001) rigidLid =   /* Rigid lid on/off flag */
(PID.TID 0000.0001)                   F
(PID.TID 0000.0001)     ;
(PID.TID 0000.0001) implicitFreeSurface =   /* Implicit free surface on/off flag */
(PID.TID 0000.0001)                   T
(PID.TID 0000.0001)     ;
(PID.TID 0000.0001) freeSurfFac =   /* Implicit free surface factor */
(PID.TID 0000.0001)                 1.000000000000000E+00
(PID.TID 0000.0001)     ;
(PID.TID 0000.0001) implicSurfPress =  /* Surface Pressure implicit factor (0-1)*/
(PID.TID 0000.0001)                 1.000000000000000E+00
(PID.TID 0000.0001)     ;
(PID.TID 0000.0001) implicDiv2DFlow =  /* Barot. Flow Div. implicit factor (0-1)*/
(PID.TID 0000.0001)                 1.000000000000000E+00
(PID.TID 0000.0001)     ;
(PID.TID 0000.0001) uniformLin_PhiSurf = /* use uniform Bo_surf on/off flag*/
(PID.TID 0000.0001)                   T
(PID.TID 0000.0001)     ;
(PID.TID 0000.0001) uniformFreeSurfLev = /* free-surface level-index is uniform */
(PID.TID 0000.0001)                   T
(PID.TID 0000.0001)     ;
(PID.TID 0000.0001) hFacMin =   /* minimum partial cell factor (hFac) */
(PID.TID 0000.0001)                 2.000000000000000E-01
(PID.TID 0000.0001)     ;
(PID.TID 0000.0001) hFacMinDr = /* minimum partial cell thickness ( m) */
(PID.TID 0000.0001)                 5.000000000000000E+00
(PID.TID 0000.0001)     ;
(PID.TID 0000.0001) exactConserv =  /* Exact Volume Conservation on/off flag*/
(PID.TID 0000.0001)                   T
(PID.TID 0000.0001)     ;
(PID.TID 0000.0001) linFSConserveTr = /* Tracer correction for Lin Free Surface on/off flag*/
(PID.TID 0000.0001)                   F
(PID.TID 0000.0001)     ;
(PID.TID 0000.0001) nonlinFreeSurf = /* Non-linear Free Surf. options (-1,0,1,2,3)*/
(PID.TID 0000.0001)                       4
(PID.TID 0000.0001)      -1,0= Off ; 1,2,3= On, 2=+rescale gU,gV, 3=+update cg2d solv.
(PID.TID 0000.0001)     ;
(PID.TID 0000.0001) hFacInf =   /* lower threshold for hFac (nonlinFreeSurf only)*/
(PID.TID 0000.0001)                 2.000000000000000E-01
(PID.TID 0000.0001)     ;
(PID.TID 0000.0001) hFacSup =   /* upper threshold for hFac (nonlinFreeSurf only)*/
(PID.TID 0000.0001)                 2.000000000000000E+00
(PID.TID 0000.0001)     ;
(PID.TID 0000.0001) select_rStar = /* r* Vertical coord. options (=0 r coord.; >0 uses r*)*/
(PID.TID 0000.0001)                       2
(PID.TID 0000.0001)     ;
(PID.TID 0000.0001) useRealFreshWaterFlux = /* Real Fresh Water Flux on/off flag*/
(PID.TID 0000.0001)                   T
(PID.TID 0000.0001)     ;
(PID.TID 0000.0001) temp_EvPrRn = /* Temp. of Evap/Prec/R (UNSET=use local T)(oC)*/
(PID.TID 0000.0001)                 1.234567000000000E+05
(PID.TID 0000.0001)     ;
(PID.TID 0000.0001) salt_EvPrRn = /* Salin. of Evap/Prec/R (UNSET=use local S)(psu)*/
(PID.TID 0000.0001)                 0.000000000000000E+00
(PID.TID 0000.0001)     ;
(PID.TID 0000.0001) selectAddFluid = /* option for mass source/sink of fluid (=0: off) */
(PID.TID 0000.0001)                       0
(PID.TID 0000.0001)     ;
(PID.TID 0000.0001) temp_addMass = /* Temp. of addMass array (UNSET=use local T)(oC)*/
(PID.TID 0000.0001)                 1.234567000000000E+05
(PID.TID 0000.0001)     ;
(PID.TID 0000.0001) salt_addMass = /* Salin. of addMass array (UNSET=use local S)(psu)*/
(PID.TID 0000.0001)                 0.000000000000000E+00
(PID.TID 0000.0001)     ;
(PID.TID 0000.0001) use3Dsolver = /* use 3-D pressure solver on/off flag */
(PID.TID 0000.0001)                   F
(PID.TID 0000.0001)     ;
(PID.TID 0000.0001) nonHydrostatic =  /* Non-Hydrostatic on/off flag */
(PID.TID 0000.0001)                   F
(PID.TID 0000.0001)     ;
(PID.TID 0000.0001) nh_Am2 = /* Non-Hydrostatic terms scaling factor */
(PID.TID 0000.0001)                 1.000000000000000E+00
(PID.TID 0000.0001)     ;
(PID.TID 0000.0001) implicitNHPress = /* Non-Hyd Pressure implicit factor (0-1)*/
(PID.TID 0000.0001)                 1.000000000000000E+00
(PID.TID 0000.0001)     ;
(PID.TID 0000.0001) selectNHfreeSurf = /* Non-Hyd (free-)Surface option */
(PID.TID 0000.0001)                       0
(PID.TID 0000.0001)     ;
(PID.TID 0000.0001) quasiHydrostatic = /* Quasi-Hydrostatic on/off flag */
(PID.TID 0000.0001)                   F
(PID.TID 0000.0001)     ;
(PID.TID 0000.0001) calc_wVelocity = /* vertical velocity calculation on/off flag */
(PID.TID 0000.0001)                   T
(PID.TID 0000.0001)     ;
(PID.TID 0000.0001) momStepping =  /* Momentum equation on/off flag */
(PID.TID 0000.0001)                   T
(PID.TID 0000.0001)     ;
(PID.TID 0000.0001) vectorInvariantMomentum= /* Vector-Invariant Momentum on/off */
(PID.TID 0000.0001)                   T
(PID.TID 0000.0001)     ;
(PID.TID 0000.0001) momAdvection =  /* Momentum advection on/off flag */
(PID.TID 0000.0001)                   T
(PID.TID 0000.0001)     ;
(PID.TID 0000.0001) momViscosity =  /* Momentum viscosity on/off flag */
(PID.TID 0000.0001)                   T
(PID.TID 0000.0001)     ;
(PID.TID 0000.0001) momImplVertAdv= /* Momentum implicit vert. advection on/off*/
(PID.TID 0000.0001)                   F
(PID.TID 0000.0001)     ;
(PID.TID 0000.0001) implicitViscosity = /* Implicit viscosity on/off flag */
(PID.TID 0000.0001)                   T
(PID.TID 0000.0001)     ;
(PID.TID 0000.0001) selectImplicitDrag= /* Implicit bot Drag options (0,1,2)*/
(PID.TID 0000.0001)                       0
(PID.TID 0000.0001)     0= Expl. ; 1= Impl. on provis. Vel ; 2= Fully Impl (with surf.P)
(PID.TID 0000.0001)     ;
(PID.TID 0000.0001) metricTerms =  /* metric-Terms on/off flag */
(PID.TID 0000.0001)                   F
(PID.TID 0000.0001)     ;
(PID.TID 0000.0001) useNHMTerms = /* Non-Hydrostatic Metric-Terms on/off */
(PID.TID 0000.0001)                   F
(PID.TID 0000.0001)     ;
(PID.TID 0000.0001) selectCoriMap = /* Coriolis Map options (0,1,2,3)*/
(PID.TID 0000.0001)                       2
(PID.TID 0000.0001)     0= f-Plane ; 1= Beta-Plane ; 2= Spherical ; 3= read from file
(PID.TID 0000.0001)     ;
(PID.TID 0000.0001) use3dCoriolis = /* 3-D Coriolis on/off flag */
(PID.TID 0000.0001)                   F
(PID.TID 0000.0001)     ;
(PID.TID 0000.0001) useCoriolis =  /* Coriolis on/off flag */
(PID.TID 0000.0001)                   T
(PID.TID 0000.0001)     ;
(PID.TID 0000.0001) useCDscheme =  /* CD scheme on/off flag */
(PID.TID 0000.0001)                   F
(PID.TID 0000.0001)     ;
(PID.TID 0000.0001) useEnergyConservingCoriolis= /* Flx-Form Coriolis scheme flag */
(PID.TID 0000.0001)                   F
(PID.TID 0000.0001)     ;
(PID.TID 0000.0001) useJamartWetPoints= /* Coriolis WetPoints method flag */
(PID.TID 0000.0001)                   T
(PID.TID 0000.0001)     ;
(PID.TID 0000.0001) useJamartMomAdv= /* V.I Non-linear terms Jamart flag */
(PID.TID 0000.0001)                   F
(PID.TID 0000.0001)     ;
(PID.TID 0000.0001) useAbsVorticity= /* V.I Works with f+zeta in Coriolis */
(PID.TID 0000.0001)                   F
(PID.TID 0000.0001)     ;
(PID.TID 0000.0001) selectVortScheme= /* V.I Scheme selector for Vorticity-Term */
(PID.TID 0000.0001)                       1
(PID.TID 0000.0001)    = 0 : enstrophy (Shallow-Water Eq.) conserving scheme by Sadourny, JAS 75
(PID.TID 0000.0001)    = 1 : same as 0 with modified hFac
(PID.TID 0000.0001)    = 2 : energy conserving scheme (used by Sadourny in JAS 75 paper)
(PID.TID 0000.0001)    = 3 : energy (general) and enstrophy (2D, nonDiv.) conserving scheme
(PID.TID 0000.0001)          from Sadourny (Burridge & Haseler, ECMWF Rep.4, 1977)
(PID.TID 0000.0001)     ;
(PID.TID 0000.0001) upwindVorticity= /* V.I Upwind bias vorticity flag */
(PID.TID 0000.0001)                   F
(PID.TID 0000.0001)     ;
(PID.TID 0000.0001) highOrderVorticity= /* V.I High order vort. advect. flag */
(PID.TID 0000.0001)                   F
(PID.TID 0000.0001)     ;
(PID.TID 0000.0001) upwindShear= /* V.I Upwind vertical Shear advection flag */
(PID.TID 0000.0001)                   F
(PID.TID 0000.0001)     ;
(PID.TID 0000.0001) selectKEscheme= /* V.I Kinetic Energy scheme selector */
(PID.TID 0000.0001)                       0
(PID.TID 0000.0001)     ;
(PID.TID 0000.0001) momForcing =  /* Momentum forcing on/off flag */
(PID.TID 0000.0001)                   T
(PID.TID 0000.0001)     ;
(PID.TID 0000.0001) momPressureForcing =  /* Momentum pressure term on/off flag */
(PID.TID 0000.0001)                   T
(PID.TID 0000.0001)     ;
(PID.TID 0000.0001) implicitIntGravWave= /* Implicit Internal Gravity Wave flag */
(PID.TID 0000.0001)                   F
(PID.TID 0000.0001)     ;
(PID.TID 0000.0001) staggerTimeStep =    /* Stagger time stepping on/off flag */
(PID.TID 0000.0001)                   T
(PID.TID 0000.0001)     ;
(PID.TID 0000.0001) doResetHFactors = /* reset thickness factors @ each time-step */
(PID.TID 0000.0001)                   F
(PID.TID 0000.0001)     ;
(PID.TID 0000.0001) multiDimAdvection =  /* enable/disable Multi-Dim Advection */
(PID.TID 0000.0001)                   T
(PID.TID 0000.0001)     ;
(PID.TID 0000.0001) useMultiDimAdvec =   /* Multi-Dim Advection is/is-not used */
(PID.TID 0000.0001)                   T
(PID.TID 0000.0001)     ;
(PID.TID 0000.0001) implicitDiffusion = /* Implicit Diffusion on/off flag */
(PID.TID 0000.0001)                   T
(PID.TID 0000.0001)     ;
(PID.TID 0000.0001) tempStepping =  /* Temperature equation on/off flag */
(PID.TID 0000.0001)                   T
(PID.TID 0000.0001)     ;
(PID.TID 0000.0001) tempAdvection = /* Temperature advection on/off flag */
(PID.TID 0000.0001)                   T
(PID.TID 0000.0001)     ;
(PID.TID 0000.0001) tempImplVertAdv = /* Temp. implicit vert. advection on/off */
(PID.TID 0000.0001)                   T
(PID.TID 0000.0001)     ;
(PID.TID 0000.0001) tempForcing  =  /* Temperature forcing on/off flag */
(PID.TID 0000.0001)                   T
(PID.TID 0000.0001)     ;
(PID.TID 0000.0001) balanceQnet  =  /* balance net heat-flux on/off flag */
(PID.TID 0000.0001)                   F
(PID.TID 0000.0001)     ;
(PID.TID 0000.0001) doThetaClimRelax = /* apply SST relaxation on/off flag */
(PID.TID 0000.0001)                   F
(PID.TID 0000.0001)     ;
(PID.TID 0000.0001) balanceThetaClimRelax= /* balance SST relaxation on/off flag */
(PID.TID 0000.0001)                   F
(PID.TID 0000.0001)     ;
(PID.TID 0000.0001) tempIsActiveTr = /* Temp. is a dynamically Active Tracer */
(PID.TID 0000.0001)                   T
(PID.TID 0000.0001)     ;
(PID.TID 0000.0001) saltStepping =  /* Salinity equation on/off flag */
(PID.TID 0000.0001)                   T
(PID.TID 0000.0001)     ;
(PID.TID 0000.0001) saltAdvection = /* Salinity advection on/off flag */
(PID.TID 0000.0001)                   T
(PID.TID 0000.0001)     ;
(PID.TID 0000.0001) saltImplVertAdv = /* Sali. implicit vert. advection on/off */
(PID.TID 0000.0001)                   T
(PID.TID 0000.0001)     ;
(PID.TID 0000.0001) saltForcing  =  /* Salinity forcing on/off flag */
(PID.TID 0000.0001)                   T
(PID.TID 0000.0001)     ;
(PID.TID 0000.0001) balanceEmPmR =  /* balance net fresh-water flux on/off flag */
(PID.TID 0000.0001)                   F
(PID.TID 0000.0001)     ;
(PID.TID 0000.0001) doSaltClimRelax = /* apply SSS relaxation on/off flag */
(PID.TID 0000.0001)                   F
(PID.TID 0000.0001)     ;
(PID.TID 0000.0001) balanceSaltClimRelax= /* balance SSS relaxation on/off flag */
(PID.TID 0000.0001)                   T
(PID.TID 0000.0001)     ;
(PID.TID 0000.0001) saltIsActiveTr = /* Salt  is a dynamically Active Tracer */
(PID.TID 0000.0001)                   T
(PID.TID 0000.0001)     ;
(PID.TID 0000.0001)  readBinaryPrec = /* Precision used for reading binary files */
(PID.TID 0000.0001)                      32
(PID.TID 0000.0001)     ;
(PID.TID 0000.0001) writeBinaryPrec = /* Precision used for writing binary files */
(PID.TID 0000.0001)                      32
(PID.TID 0000.0001)     ;
(PID.TID 0000.0001)  rwSuffixType =   /* select format of mds file suffix */
(PID.TID 0000.0001)                       0
(PID.TID 0000.0001)    = 0 : myIter (I10.10) ;   = 1 : 100*myTime (100th sec) ;
(PID.TID 0000.0001)    = 2 : myTime (seconds);   = 3 : myTime/360 (10th of hr);
(PID.TID 0000.0001)    = 4 : myTime/3600 (hours)
(PID.TID 0000.0001)     ;
(PID.TID 0000.0001)  globalFiles = /* write "global" (=not per tile) files */
(PID.TID 0000.0001)                   F
(PID.TID 0000.0001)     ;
(PID.TID 0000.0001)  useSingleCpuIO = /* only master MPI process does I/O */
(PID.TID 0000.0001)                   T
(PID.TID 0000.0001)     ;
(PID.TID 0000.0001)  useSingleCpuInput = /* only master process reads input */
(PID.TID 0000.0001)                   T
(PID.TID 0000.0001)     ;
(PID.TID 0000.0001) /* debLev[*]  : level of debug & auxiliary message printing */
(PID.TID 0000.0001) debLevZero =  0 ; /* level of disabled aux. msg printing */
(PID.TID 0000.0001)    debLevA =  1 ; /* level of minimum  aux. msg printing */
(PID.TID 0000.0001)    debLevB =  2 ; /* level of low aux. print (report read-file opening)*/
(PID.TID 0000.0001)    debLevC =  3 ; /* level of moderate debug prt (most pkgs debug msg) */
(PID.TID 0000.0001)    debLevD =  4 ; /* level of enhanced debug prt (add DEBUG_STATS prt) */
(PID.TID 0000.0001)    debLevE =  5 ; /* level of extensive debug printing */
(PID.TID 0000.0001) debugLevel =  /* select debug printing level */
(PID.TID 0000.0001)                       1
(PID.TID 0000.0001)     ;
(PID.TID 0000.0001)  plotLevel =  /* select PLOT_FIELD printing level */
(PID.TID 0000.0001)                       1
(PID.TID 0000.0001)     ;
(PID.TID 0000.0001) //
(PID.TID 0000.0001) // Elliptic solver(s) paramters ( PARM02 in namelist )
(PID.TID 0000.0001) //
(PID.TID 0000.0001) cg2dMaxIters =   /* Upper limit on 2d con. grad iterations  */
(PID.TID 0000.0001)                     300
(PID.TID 0000.0001)     ;
(PID.TID 0000.0001) cg2dChkResFreq =   /* 2d con. grad convergence test frequency */
(PID.TID 0000.0001)                       1
(PID.TID 0000.0001)     ;
(PID.TID 0000.0001) cg2dUseMinResSol= /* use cg2d last-iter(=0) / min-resid.(=1) solution */
(PID.TID 0000.0001)                       0
(PID.TID 0000.0001)     ;
(PID.TID 0000.0001) cg2dTargetResidual =   /* 2d con. grad target residual  */
(PID.TID 0000.0001)                 1.000000000000000E-07
(PID.TID 0000.0001)     ;
(PID.TID 0000.0001) cg2dTargetResWunit =   /* CG2d target residual [W units] */
(PID.TID 0000.0001)                 1.000000000000000E-12
(PID.TID 0000.0001)     ;
(PID.TID 0000.0001) cg2dPreCondFreq =   /* Freq. for updating cg2d preconditioner */
(PID.TID 0000.0001)                       1
(PID.TID 0000.0001)     ;
(PID.TID 0000.0001) useSRCGSolver =  /* use single reduction CG solver(s) */
(PID.TID 0000.0001)                   F
(PID.TID 0000.0001)     ;
(PID.TID 0000.0001) printResidualFreq = /* Freq. for printing CG residual */
(PID.TID 0000.0001)                       0
(PID.TID 0000.0001)     ;
(PID.TID 0000.0001) //
(PID.TID 0000.0001) // Time stepping paramters ( PARM03 in namelist )
(PID.TID 0000.0001) //
(PID.TID 0000.0001) deltaTMom =   /* Momentum equation timestep ( s ) */
(PID.TID 0000.0001)                 9.000000000000000E+02
(PID.TID 0000.0001)     ;
(PID.TID 0000.0001) deltaTFreeSurf = /* FreeSurface equation timestep ( s ) */
(PID.TID 0000.0001)                 9.000000000000000E+02
(PID.TID 0000.0001)     ;
(PID.TID 0000.0001) dTtracerLev =  /* Tracer equation timestep ( s ) */
(PID.TID 0000.0001)    50 @  9.000000000000000E+02              /* K =  1: 50 */
(PID.TID 0000.0001)     ;
(PID.TID 0000.0001) deltaTClock  =   /* Model clock timestep ( s ) */
(PID.TID 0000.0001)                 9.000000000000000E+02
(PID.TID 0000.0001)     ;
(PID.TID 0000.0001) cAdjFreq =   /* Convective adjustment interval ( s ) */
(PID.TID 0000.0001)                 0.000000000000000E+00
(PID.TID 0000.0001)     ;
(PID.TID 0000.0001) momForcingOutAB = /* =1: take Momentum Forcing out of Adams-Bash. stepping */
(PID.TID 0000.0001)                       1
(PID.TID 0000.0001)     ;
(PID.TID 0000.0001) tracForcingOutAB = /* =1: take T,S,pTr Forcing out of Adams-Bash. stepping */
(PID.TID 0000.0001)                       1
(PID.TID 0000.0001)     ;
(PID.TID 0000.0001) momDissip_In_AB = /* put Dissipation Tendency in Adams-Bash. stepping */
(PID.TID 0000.0001)                   F
(PID.TID 0000.0001)     ;
(PID.TID 0000.0001) doAB_onGtGs = /* apply AB on Tendencies (rather than on T,S)*/
(PID.TID 0000.0001)                   T
(PID.TID 0000.0001)     ;
(PID.TID 0000.0001) abEps =   /* Adams-Bashforth-2 stabilizing weight */
(PID.TID 0000.0001)                 1.000000000000000E-01
(PID.TID 0000.0001)     ;
(PID.TID 0000.0001) applyExchUV_early = /* Apply EXCH to U,V earlier in time-step */
(PID.TID 0000.0001)                   F
(PID.TID 0000.0001)     ;
(PID.TID 0000.0001) pickupStrictlyMatch= /* stop if pickup do not strictly match */
(PID.TID 0000.0001)                   F
(PID.TID 0000.0001)     ;
(PID.TID 0000.0001) nIter0   =   /* Run starting timestep number */
(PID.TID 0000.0001)                       1
(PID.TID 0000.0001)     ;
(PID.TID 0000.0001) nTimeSteps = /* Number of timesteps */
(PID.TID 0000.0001)                  175295
(PID.TID 0000.0001)     ;
(PID.TID 0000.0001) nEndIter =   /* Run ending timestep number */
(PID.TID 0000.0001)                  175296
(PID.TID 0000.0001)     ;
(PID.TID 0000.0001) baseTime =   /* Model base time ( s ) */
(PID.TID 0000.0001)                 0.000000000000000E+00
(PID.TID 0000.0001)     ;
(PID.TID 0000.0001) startTime =  /* Run start time ( s ) */
(PID.TID 0000.0001)                 9.000000000000000E+02
(PID.TID 0000.0001)     ;
(PID.TID 0000.0001) endTime  =   /* Integration ending time ( s ) */
(PID.TID 0000.0001)                 1.577664000000000E+08
(PID.TID 0000.0001)     ;
(PID.TID 0000.0001) pChkPtFreq = /* Permanent restart/pickup file interval ( s ) */
(PID.TID 0000.0001)                 3.153600000000000E+07
(PID.TID 0000.0001)     ;
(PID.TID 0000.0001) chkPtFreq  = /* Rolling restart/pickup file interval ( s ) */
(PID.TID 0000.0001)                 3.153600000000000E+07
(PID.TID 0000.0001)     ;
(PID.TID 0000.0001) pickup_write_mdsio =   /* Model IO flag. */
(PID.TID 0000.0001)                   T
(PID.TID 0000.0001)     ;
(PID.TID 0000.0001) pickup_read_mdsio =   /* Model IO flag. */
(PID.TID 0000.0001)                   T
(PID.TID 0000.0001)     ;
(PID.TID 0000.0001) writePickupAtEnd =   /* Model IO flag. */
(PID.TID 0000.0001)                   T
(PID.TID 0000.0001)     ;
(PID.TID 0000.0001) dumpFreq =   /* Model state write out interval ( s ). */
(PID.TID 0000.0001)                 0.000000000000000E+00
(PID.TID 0000.0001)     ;
(PID.TID 0000.0001) dumpInitAndLast= /* write out Initial & Last iter. model state */
(PID.TID 0000.0001)                   T
(PID.TID 0000.0001)     ;
(PID.TID 0000.0001) snapshot_mdsio =   /* Model IO flag. */
(PID.TID 0000.0001)                   T
(PID.TID 0000.0001)     ;
(PID.TID 0000.0001) monitorFreq =   /* Monitor output interval ( s ). */
(PID.TID 0000.0001)                 7.200000000000000E+03
(PID.TID 0000.0001)     ;
(PID.TID 0000.0001) monitorSelect = /* select group of variables to monitor */
(PID.TID 0000.0001)                       3
(PID.TID 0000.0001)     ;
(PID.TID 0000.0001) monitor_stdio =   /* Model IO flag. */
(PID.TID 0000.0001)                   T
(PID.TID 0000.0001)     ;
(PID.TID 0000.0001) externForcingPeriod =   /* forcing period (s) */
(PID.TID 0000.0001)                 0.000000000000000E+00
(PID.TID 0000.0001)     ;
(PID.TID 0000.0001) externForcingCycle =   /* period of the cyle (s). */
(PID.TID 0000.0001)                 0.000000000000000E+00
(PID.TID 0000.0001)     ;
(PID.TID 0000.0001) tauThetaClimRelax =   /* relaxation time scale (s) */
(PID.TID 0000.0001)                 0.000000000000000E+00
(PID.TID 0000.0001)     ;
(PID.TID 0000.0001) tauSaltClimRelax =   /* relaxation time scale (s) */
(PID.TID 0000.0001)                 0.000000000000000E+00
(PID.TID 0000.0001)     ;
(PID.TID 0000.0001) latBandClimRelax =   /* max. Lat. where relaxation */
(PID.TID 0000.0001)                 1.800000000000000E+02
(PID.TID 0000.0001)     ;
(PID.TID 0000.0001) //
(PID.TID 0000.0001) // Gridding paramters ( PARM04 in namelist )
(PID.TID 0000.0001) //
(PID.TID 0000.0001) usingCartesianGrid = /* Cartesian coordinates flag ( True/False ) */
(PID.TID 0000.0001)                   F
(PID.TID 0000.0001)     ;
(PID.TID 0000.0001) usingCylindricalGrid = /* Cylindrical coordinates flag ( True/False ) */
(PID.TID 0000.0001)                   F
(PID.TID 0000.0001)     ;
(PID.TID 0000.0001) usingSphericalPolarGrid = /* Spherical coordinates flag ( True/False ) */
(PID.TID 0000.0001)                   F
(PID.TID 0000.0001)     ;
(PID.TID 0000.0001) usingCurvilinearGrid = /* Curvilinear coordinates flag ( True/False ) */
(PID.TID 0000.0001)                   T
(PID.TID 0000.0001)     ;
(PID.TID 0000.0001) useMin4hFacEdges = /* set hFacW,S as minimum of adjacent hFacC factor */
(PID.TID 0000.0001)                   F
(PID.TID 0000.0001)     ;
(PID.TID 0000.0001) selectSigmaCoord = /* Hybrid-Sigma Vert. Coordinate option */
(PID.TID 0000.0001)                       0
(PID.TID 0000.0001)     ;
(PID.TID 0000.0001) rSigmaBnd = /* r/sigma transition ( units of r ==  m ) */
(PID.TID 0000.0001)                 1.234567000000000E+05
(PID.TID 0000.0001)     ;
(PID.TID 0000.0001) rkSign =   /* index orientation relative to vertical coordinate */
(PID.TID 0000.0001)                -1.000000000000000E+00
(PID.TID 0000.0001)     ;
(PID.TID 0000.0001) gravitySign = /* gravity orientation relative to vertical coordinate */
(PID.TID 0000.0001)                -1.000000000000000E+00
(PID.TID 0000.0001)     ;
(PID.TID 0000.0001) seaLev_Z =  /* reference height of sea-level [m] */
(PID.TID 0000.0001)                 0.000000000000000E+00
(PID.TID 0000.0001)     ;
(PID.TID 0000.0001) top_Pres =  /* reference pressure at the top [Pa] */
(PID.TID 0000.0001)                 0.000000000000000E+00
(PID.TID 0000.0001)     ;
(PID.TID 0000.0001) mass2rUnit = /* convert mass per unit area [kg/m2] to r-units [m] */
(PID.TID 0000.0001)                 9.718172983479105E-04
(PID.TID 0000.0001)     ;
(PID.TID 0000.0001) rUnit2mass = /* convert r-units [m] to mass per unit area [kg/m2] */
(PID.TID 0000.0001)                 1.029000000000000E+03
(PID.TID 0000.0001)     ;
(PID.TID 0000.0001) drC =   /* C spacing ( units of r ) */
(PID.TID 0000.0001)                 5.000000000000000E+00,      /* K =  1 */
(PID.TID 0000.0001)     6 @  1.000000000000000E+01,             /* K =  2:  7 */
(PID.TID 0000.0001)                 1.000500000000000E+01,      /* K =  8 */
(PID.TID 0000.0001)                 1.002000000000000E+01,      /* K =  9 */
(PID.TID 0000.0001)                 1.007000000000000E+01,      /* K = 10 */
(PID.TID 0000.0001)                 1.021500000000000E+01,      /* K = 11 */
(PID.TID 0000.0001)                 1.056000000000000E+01,      /* K = 12 */
(PID.TID 0000.0001)                 1.128000000000000E+01,      /* K = 13 */
(PID.TID 0000.0001)                 1.259000000000000E+01,      /* K = 14 */
(PID.TID 0000.0001)                 1.473000000000000E+01,      /* K = 15 */
(PID.TID 0000.0001)                 1.793000000000000E+01,      /* K = 16 */
(PID.TID 0000.0001)                 2.233500000000000E+01,      /* K = 17 */
(PID.TID 0000.0001)                 2.797500000000000E+01,      /* K = 18 */
(PID.TID 0000.0001)                 3.476000000000001E+01,      /* K = 19 */
(PID.TID 0000.0001)                 4.246000000000000E+01,      /* K = 20 */
(PID.TID 0000.0001)                 5.075000000000000E+01,      /* K = 21 */
(PID.TID 0000.0001)                 5.925000000000000E+01,      /* K = 22 */
(PID.TID 0000.0001)                 6.753999999999999E+01,      /* K = 23 */
(PID.TID 0000.0001)                 7.524000000000001E+01,      /* K = 24 */
(PID.TID 0000.0001)                 8.202500000000001E+01,      /* K = 25 */
(PID.TID 0000.0001)                 8.766500000000001E+01,      /* K = 26 */
(PID.TID 0000.0001)                 9.206999999999999E+01,      /* K = 27 */
(PID.TID 0000.0001)                 9.527000000000000E+01,      /* K = 28 */
(PID.TID 0000.0001)                 9.741499999999999E+01,      /* K = 29 */
(PID.TID 0000.0001)                 9.875000000000000E+01,      /* K = 30 */
(PID.TID 0000.0001)                 9.963000000000000E+01,      /* K = 31 */
(PID.TID 0000.0001)                 1.006700000000000E+02,      /* K = 32 */
(PID.TID 0000.0001)                 1.029450000000000E+02,      /* K = 33 */
(PID.TID 0000.0001)                 1.079450000000000E+02,      /* K = 34 */
(PID.TID 0000.0001)                 1.170800000000000E+02,      /* K = 35 */
(PID.TID 0000.0001)                 1.309600000000000E+02,      /* K = 36 */
(PID.TID 0000.0001)                 1.490150000000000E+02,      /* K = 37 */
(PID.TID 0000.0001)                 1.698850000000000E+02,      /* K = 38 */
(PID.TID 0000.0001)                 1.921900000000000E+02,      /* K = 39 */
(PID.TID 0000.0001)                 2.150250000000000E+02,      /* K = 40 */
(PID.TID 0000.0001)                 2.380000000000000E+02,      /* K = 41 */
(PID.TID 0000.0001)                 2.610000000000000E+02,      /* K = 42 */
(PID.TID 0000.0001)                 2.840000000000000E+02,      /* K = 43 */
(PID.TID 0000.0001)                 3.070000000000000E+02,      /* K = 44 */
(PID.TID 0000.0001)                 3.300000000000000E+02,      /* K = 45 */
(PID.TID 0000.0001)                 3.530000000000000E+02,      /* K = 46 */
(PID.TID 0000.0001)                 3.760000000000000E+02,      /* K = 47 */
(PID.TID 0000.0001)                 3.990000000000000E+02,      /* K = 48 */
(PID.TID 0000.0001)                 4.220000000000000E+02,      /* K = 49 */
(PID.TID 0000.0001)                 4.450000000000000E+02,      /* K = 50 */
(PID.TID 0000.0001)                 2.282500000000000E+02       /* K = 51 */
(PID.TID 0000.0001)     ;
(PID.TID 0000.0001) drF =   /* W spacing ( units of r ) */
(PID.TID 0000.0001)     7 @  1.000000000000000E+01,             /* K =  1:  7 */
(PID.TID 0000.0001)                 1.001000000000000E+01,      /* K =  8 */
(PID.TID 0000.0001)                 1.003000000000000E+01,      /* K =  9 */
(PID.TID 0000.0001)                 1.011000000000000E+01,      /* K = 10 */
(PID.TID 0000.0001)                 1.032000000000000E+01,      /* K = 11 */
(PID.TID 0000.0001)                 1.080000000000000E+01,      /* K = 12 */
(PID.TID 0000.0001)                 1.176000000000000E+01,      /* K = 13 */
(PID.TID 0000.0001)                 1.342000000000000E+01,      /* K = 14 */
(PID.TID 0000.0001)                 1.604000000000000E+01,      /* K = 15 */
(PID.TID 0000.0001)                 1.982000000000000E+01,      /* K = 16 */
(PID.TID 0000.0001)                 2.485000000000000E+01,      /* K = 17 */
(PID.TID 0000.0001)                 3.110000000000000E+01,      /* K = 18 */
(PID.TID 0000.0001)                 3.842000000000000E+01,      /* K = 19 */
(PID.TID 0000.0001)                 4.650000000000000E+01,      /* K = 20 */
(PID.TID 0000.0001)                 5.500000000000000E+01,      /* K = 21 */
(PID.TID 0000.0001)                 6.350000000000000E+01,      /* K = 22 */
(PID.TID 0000.0001)                 7.158000000000000E+01,      /* K = 23 */
(PID.TID 0000.0001)                 7.890000000000001E+01,      /* K = 24 */
(PID.TID 0000.0001)                 8.515000000000001E+01,      /* K = 25 */
(PID.TID 0000.0001)                 9.018000000000001E+01,      /* K = 26 */
(PID.TID 0000.0001)                 9.395999999999999E+01,      /* K = 27 */
(PID.TID 0000.0001)                 9.658000000000000E+01,      /* K = 28 */
(PID.TID 0000.0001)                 9.825000000000000E+01,      /* K = 29 */
(PID.TID 0000.0001)                 9.925000000000000E+01,      /* K = 30 */
(PID.TID 0000.0001)                 1.000100000000000E+02,      /* K = 31 */
(PID.TID 0000.0001)                 1.013300000000000E+02,      /* K = 32 */
(PID.TID 0000.0001)                 1.045600000000000E+02,      /* K = 33 */
(PID.TID 0000.0001)                 1.113300000000000E+02,      /* K = 34 */
(PID.TID 0000.0001)                 1.228300000000000E+02,      /* K = 35 */
(PID.TID 0000.0001)                 1.390900000000000E+02,      /* K = 36 */
(PID.TID 0000.0001)                 1.589400000000000E+02,      /* K = 37 */
(PID.TID 0000.0001)                 1.808300000000000E+02,      /* K = 38 */
(PID.TID 0000.0001)                 2.035500000000000E+02,      /* K = 39 */
(PID.TID 0000.0001)                 2.265000000000000E+02,      /* K = 40 */
(PID.TID 0000.0001)                 2.495000000000000E+02,      /* K = 41 */
(PID.TID 0000.0001)                 2.725000000000000E+02,      /* K = 42 */
(PID.TID 0000.0001)                 2.955000000000000E+02,      /* K = 43 */
(PID.TID 0000.0001)                 3.185000000000000E+02,      /* K = 44 */
(PID.TID 0000.0001)                 3.415000000000000E+02,      /* K = 45 */
(PID.TID 0000.0001)                 3.645000000000000E+02,      /* K = 46 */
(PID.TID 0000.0001)                 3.875000000000000E+02,      /* K = 47 */
(PID.TID 0000.0001)                 4.105000000000000E+02,      /* K = 48 */
(PID.TID 0000.0001)                 4.335000000000000E+02,      /* K = 49 */
(PID.TID 0000.0001)                 4.565000000000000E+02       /* K = 50 */
(PID.TID 0000.0001)     ;
(PID.TID 0000.0001) radius_fromHorizGrid = /* sphere Radius of input horiz. grid */
(PID.TID 0000.0001)                 6.370000000000000E+06
(PID.TID 0000.0001)     ;
(PID.TID 0000.0001) rSphere =  /* Radius ( ignored - cartesian, m - spherical ) */
(PID.TID 0000.0001)                 6.370000000000000E+06
(PID.TID 0000.0001)     ;
(PID.TID 0000.0001) deepAtmosphere = /* Deep/Shallow Atmosphere flag (True/False) */
(PID.TID 0000.0001)                   F
(PID.TID 0000.0001)     ;
(PID.TID 0000.0001) xC =  /* xC(:,1,:,1) : P-point X coord ( deg. or m if cartesian) */
(PID.TID 0000.0001)                -4.081468768806280E+01,      /* I =  1 */
(PID.TID 0000.0001)                -3.957104986057077E+01,      /* I =  2 */
(PID.TID 0000.0001)                -3.832217028656162E+01,      /* I =  3 */
(PID.TID 0000.0001)                -3.706844413107324E+01,      /* I =  4 */
(PID.TID 0000.0001)                -3.581028225779612E+01,      /* I =  5 */
(PID.TID 0000.0001)                -3.454811012006861E+01,      /* I =  6 */
(PID.TID 0000.0001)                -3.328236654497336E+01,      /* I =  7 */
(PID.TID 0000.0001)                -3.201350241727823E+01,      /* I =  8 */
(PID.TID 0000.0001)                -3.074197927113779E+01,      /* I =  9 */
(PID.TID 0000.0001)                -2.946826779826338E+01,      /* I = 10 */
(PID.TID 0000.0001)                -2.819284628214859E+01,      /* I = 11 */
(PID.TID 0000.0001)                -2.691619896217756E+01,      /* I = 12 */
(PID.TID 0000.0001)                -2.563881425705264E+01,      /* I = 13 */
(PID.TID 0000.0001)                -2.436118574294736E+01,      /* I = 14 */
(PID.TID 0000.0001)                -2.308380103782244E+01,      /* I = 15 */
(PID.TID 0000.0001)                -2.180715371785141E+01,      /* I = 16 */
(PID.TID 0000.0001)                -2.053173220173662E+01,      /* I = 17 */
(PID.TID 0000.0001)                -1.925802072886221E+01,      /* I = 18 */
(PID.TID 0000.0001)                -1.798649758272177E+01,      /* I = 19 */
(PID.TID 0000.0001)                -1.671763345502664E+01,      /* I = 20 */
(PID.TID 0000.0001)                -1.545188987993139E+01,      /* I = 21 */
(PID.TID 0000.0001)                -1.418971774220388E+01,      /* I = 22 */
(PID.TID 0000.0001)                -1.293155586892676E+01,      /* I = 23 */
(PID.TID 0000.0001)                -1.167782971343838E+01,      /* I = 24 */
(PID.TID 0000.0001)                -1.042895013942923E+01,      /* I = 25 */
(PID.TID 0000.0001)                -9.185312311937196E+00,      /* I = 26 */
(PID.TID 0000.0001)                -7.947294700425999E+00,      /* I = 27 */
(PID.TID 0000.0001)                -6.715258197621779E+00,      /* I = 28 */
(PID.TID 0000.0001)                -5.489545357070952E+00,      /* I = 29 */
(PID.TID 0000.0001)                -4.270479749729759E+00       /* I = 30 */
(PID.TID 0000.0001)     ;
(PID.TID 0000.0001) yC =  /* yC(1,:,1,:) : P-point Y coord ( deg. or m if cartesian) */
(PID.TID 0000.0001)                -8.146222940368236E+01,      /* J =  1 */
(PID.TID 0000.0001)                -8.113083815286421E+01,      /* J =  2 */
(PID.TID 0000.0001)                -8.079504828233755E+01,      /* J =  3 */
(PID.TID 0000.0001)                -8.045491317322768E+01,      /* J =  4 */
(PID.TID 0000.0001)                -8.011048280590389E+01,      /* J =  5 */
(PID.TID 0000.0001)                -7.976180430515704E+01,      /* J =  6 */
(PID.TID 0000.0001)                -7.940892240526760E+01,      /* J =  7 */
(PID.TID 0000.0001)                -7.905187984845006E+01,      /* J =  8 */
(PID.TID 0000.0001)                -7.869071772754813E+01,      /* J =  9 */
(PID.TID 0000.0001)                -7.832547578199167E+01,      /* J = 10 */
(PID.TID 0000.0001)                -7.795619265432416E+01,      /* J = 11 */
(PID.TID 0000.0001)                -7.758290611340497E+01,      /* J = 12 */
(PID.TID 0000.0001)                -7.720565324926896E+01,      /* J = 13 */
(PID.TID 0000.0001)                -7.682447064385434E+01,      /* J = 14 */
(PID.TID 0000.0001)                -7.643939452107085E+01,      /* J = 15 */
(PID.TID 0000.0001)                -7.605046087901695E+01,      /* J = 16 */
(PID.TID 0000.0001)                -7.565770560699295E+01,      /* J = 17 */
(PID.TID 0000.0001)                -7.526116458910658E+01,      /* J = 18 */
(PID.TID 0000.0001)                -7.486087379640449E+01,      /* J = 19 */
(PID.TID 0000.0001)                -7.445686936886233E+01,      /* J = 20 */
(PID.TID 0000.0001)                -7.404918768854837E+01,      /* J = 21 */
(PID.TID 0000.0001)                -7.363786544493549E+01,      /* J = 22 */
(PID.TID 0000.0001)                -7.322293969328220E+01,      /* J = 23 */
(PID.TID 0000.0001)                -7.280444790682334E+01,      /* J = 24 */
(PID.TID 0000.0001)                -7.238242802328044E+01,      /* J = 25 */
(PID.TID 0000.0001)                -7.195691848614972E+01,      /* J = 26 */
(PID.TID 0000.0001)                -7.152795828082729E+01,      /* J = 27 */
(PID.TID 0000.0001)                -7.109558696482472E+01,      /* J = 28 */
(PID.TID 0000.0001)                -7.065984468855757E+01,      /* J = 29 */
(PID.TID 0000.0001)                -7.022077218177122E+01       /* J = 30 */
(PID.TID 0000.0001)     ;
(PID.TID 0000.0001) rcoord = /* P-point R coordinate (  units of r ) */
(PID.TID 0000.0001)                -5.000000000000000E+00,      /* K =  1 */
(PID.TID 0000.0001)                -1.500000000000000E+01,      /* K =  2 */
(PID.TID 0000.0001)                -2.500000000000000E+01,      /* K =  3 */
(PID.TID 0000.0001)                -3.500000000000000E+01,      /* K =  4 */
(PID.TID 0000.0001)                -4.500000000000000E+01,      /* K =  5 */
(PID.TID 0000.0001)                -5.500000000000000E+01,      /* K =  6 */
(PID.TID 0000.0001)                -6.500000000000000E+01,      /* K =  7 */
(PID.TID 0000.0001)                -7.500500000000000E+01,      /* K =  8 */
(PID.TID 0000.0001)                -8.502499999999999E+01,      /* K =  9 */
(PID.TID 0000.0001)                -9.509500000000000E+01,      /* K = 10 */
(PID.TID 0000.0001)                -1.053100000000000E+02,      /* K = 11 */
(PID.TID 0000.0001)                -1.158700000000000E+02,      /* K = 12 */
(PID.TID 0000.0001)                -1.271500000000000E+02,      /* K = 13 */
(PID.TID 0000.0001)                -1.397400000000000E+02,      /* K = 14 */
(PID.TID 0000.0001)                -1.544700000000000E+02,      /* K = 15 */
(PID.TID 0000.0001)                -1.724000000000000E+02,      /* K = 16 */
(PID.TID 0000.0001)                -1.947350000000000E+02,      /* K = 17 */
(PID.TID 0000.0001)                -2.227100000000000E+02,      /* K = 18 */
(PID.TID 0000.0001)                -2.574700000000000E+02,      /* K = 19 */
(PID.TID 0000.0001)                -2.999300000000000E+02,      /* K = 20 */
(PID.TID 0000.0001)                -3.506800000000000E+02,      /* K = 21 */
(PID.TID 0000.0001)                -4.099300000000000E+02,      /* K = 22 */
(PID.TID 0000.0001)                -4.774700000000000E+02,      /* K = 23 */
(PID.TID 0000.0001)                -5.527100000000000E+02,      /* K = 24 */
(PID.TID 0000.0001)                -6.347350000000000E+02,      /* K = 25 */
(PID.TID 0000.0001)                -7.224000000000000E+02,      /* K = 26 */
(PID.TID 0000.0001)                -8.144700000000000E+02,      /* K = 27 */
(PID.TID 0000.0001)                -9.097400000000000E+02,      /* K = 28 */
(PID.TID 0000.0001)                -1.007155000000000E+03,      /* K = 29 */
(PID.TID 0000.0001)                -1.105905000000000E+03,      /* K = 30 */
(PID.TID 0000.0001)                -1.205535000000000E+03,      /* K = 31 */
(PID.TID 0000.0001)                -1.306205000000000E+03,      /* K = 32 */
(PID.TID 0000.0001)                -1.409150000000000E+03,      /* K = 33 */
(PID.TID 0000.0001)                -1.517095000000000E+03,      /* K = 34 */
(PID.TID 0000.0001)                -1.634175000000000E+03,      /* K = 35 */
(PID.TID 0000.0001)                -1.765135000000000E+03,      /* K = 36 */
(PID.TID 0000.0001)                -1.914150000000000E+03,      /* K = 37 */
(PID.TID 0000.0001)                -2.084035000000000E+03,      /* K = 38 */
(PID.TID 0000.0001)                -2.276225000000000E+03,      /* K = 39 */
(PID.TID 0000.0001)                -2.491250000000000E+03,      /* K = 40 */
(PID.TID 0000.0001)                -2.729250000000000E+03,      /* K = 41 */
(PID.TID 0000.0001)                -2.990250000000000E+03,      /* K = 42 */
(PID.TID 0000.0001)                -3.274250000000000E+03,      /* K = 43 */
(PID.TID 0000.0001)                -3.581250000000000E+03,      /* K = 44 */
(PID.TID 0000.0001)                -3.911250000000000E+03,      /* K = 45 */
(PID.TID 0000.0001)                -4.264250000000000E+03,      /* K = 46 */
(PID.TID 0000.0001)                -4.640250000000000E+03,      /* K = 47 */
(PID.TID 0000.0001)                -5.039250000000000E+03,      /* K = 48 */
(PID.TID 0000.0001)                -5.461250000000000E+03,      /* K = 49 */
(PID.TID 0000.0001)                -5.906250000000000E+03       /* K = 50 */
(PID.TID 0000.0001)     ;
(PID.TID 0000.0001) rF =   /* W-Interf. R coordinate (  units of r ) */
(PID.TID 0000.0001)                 0.000000000000000E+00,      /* K =  1 */
(PID.TID 0000.0001)                -1.000000000000000E+01,      /* K =  2 */
(PID.TID 0000.0001)                -2.000000000000000E+01,      /* K =  3 */
(PID.TID 0000.0001)                -3.000000000000000E+01,      /* K =  4 */
(PID.TID 0000.0001)                -4.000000000000000E+01,      /* K =  5 */
(PID.TID 0000.0001)                -5.000000000000000E+01,      /* K =  6 */
(PID.TID 0000.0001)                -6.000000000000000E+01,      /* K =  7 */
(PID.TID 0000.0001)                -7.000000000000000E+01,      /* K =  8 */
(PID.TID 0000.0001)                -8.001000000000001E+01,      /* K =  9 */
(PID.TID 0000.0001)                -9.004000000000001E+01,      /* K = 10 */
(PID.TID 0000.0001)                -1.001500000000000E+02,      /* K = 11 */
(PID.TID 0000.0001)                -1.104700000000000E+02,      /* K = 12 */
(PID.TID 0000.0001)                -1.212700000000000E+02,      /* K = 13 */
(PID.TID 0000.0001)                -1.330300000000000E+02,      /* K = 14 */
(PID.TID 0000.0001)                -1.464500000000000E+02,      /* K = 15 */
(PID.TID 0000.0001)                -1.624900000000000E+02,      /* K = 16 */
(PID.TID 0000.0001)                -1.823100000000000E+02,      /* K = 17 */
(PID.TID 0000.0001)                -2.071600000000000E+02,      /* K = 18 */
(PID.TID 0000.0001)                -2.382600000000000E+02,      /* K = 19 */
(PID.TID 0000.0001)                -2.766799999999999E+02,      /* K = 20 */
(PID.TID 0000.0001)                -3.231799999999999E+02,      /* K = 21 */
(PID.TID 0000.0001)                -3.781799999999999E+02,      /* K = 22 */
(PID.TID 0000.0001)                -4.416799999999999E+02,      /* K = 23 */
(PID.TID 0000.0001)                -5.132600000000000E+02,      /* K = 24 */
(PID.TID 0000.0001)                -5.921600000000000E+02,      /* K = 25 */
(PID.TID 0000.0001)                -6.773099999999999E+02,      /* K = 26 */
(PID.TID 0000.0001)                -7.674900000000000E+02,      /* K = 27 */
(PID.TID 0000.0001)                -8.614500000000000E+02,      /* K = 28 */
(PID.TID 0000.0001)                -9.580300000000001E+02,      /* K = 29 */
(PID.TID 0000.0001)                -1.056280000000000E+03,      /* K = 30 */
(PID.TID 0000.0001)                -1.155530000000000E+03,      /* K = 31 */
(PID.TID 0000.0001)                -1.255540000000000E+03,      /* K = 32 */
(PID.TID 0000.0001)                -1.356870000000000E+03,      /* K = 33 */
(PID.TID 0000.0001)                -1.461430000000000E+03,      /* K = 34 */
(PID.TID 0000.0001)                -1.572760000000000E+03,      /* K = 35 */
(PID.TID 0000.0001)                -1.695590000000000E+03,      /* K = 36 */
(PID.TID 0000.0001)                -1.834680000000000E+03,      /* K = 37 */
(PID.TID 0000.0001)                -1.993620000000000E+03,      /* K = 38 */
(PID.TID 0000.0001)                -2.174450000000000E+03,      /* K = 39 */
(PID.TID 0000.0001)                -2.378000000000000E+03,      /* K = 40 */
(PID.TID 0000.0001)                -2.604500000000000E+03,      /* K = 41 */
(PID.TID 0000.0001)                -2.854000000000000E+03,      /* K = 42 */
(PID.TID 0000.0001)                -3.126500000000000E+03,      /* K = 43 */
(PID.TID 0000.0001)                -3.422000000000000E+03,      /* K = 44 */
(PID.TID 0000.0001)                -3.740500000000000E+03,      /* K = 45 */
(PID.TID 0000.0001)                -4.082000000000000E+03,      /* K = 46 */
(PID.TID 0000.0001)                -4.446500000000000E+03,      /* K = 47 */
(PID.TID 0000.0001)                -4.834000000000000E+03,      /* K = 48 */
(PID.TID 0000.0001)                -5.244500000000000E+03,      /* K = 49 */
(PID.TID 0000.0001)                -5.678000000000000E+03,      /* K = 50 */
(PID.TID 0000.0001)                -6.134500000000000E+03       /* K = 51 */
(PID.TID 0000.0001)     ;
(PID.TID 0000.0001) deepFacC = /* deep-model grid factor @ cell-Center (-) */
(PID.TID 0000.0001)    50 @  1.000000000000000E+00              /* K =  1: 50 */
(PID.TID 0000.0001)     ;
(PID.TID 0000.0001) deepFacF = /* deep-model grid factor @ W-Interface (-) */
(PID.TID 0000.0001)    51 @  1.000000000000000E+00              /* K =  1: 51 */
(PID.TID 0000.0001)     ;
(PID.TID 0000.0001) rVel2wUnit = /* convert units: rVel -> wSpeed (=1 if z-coord)*/
(PID.TID 0000.0001)    51 @  1.000000000000000E+00              /* K =  1: 51 */
(PID.TID 0000.0001)     ;
(PID.TID 0000.0001) wUnit2rVel = /* convert units: wSpeed -> rVel (=1 if z-coord)*/
(PID.TID 0000.0001)    51 @  1.000000000000000E+00              /* K =  1: 51 */
(PID.TID 0000.0001)     ;
(PID.TID 0000.0001) dBdrRef = /* Vertical grad. of reference buoyancy [(m/s/r)^2] */
(PID.TID 0000.0001)     3 @  0.000000000000000E+00,             /* K =  1:  3 */
(PID.TID 0000.0001)                 2.706065538651213E-04,      /* K =  4 */
(PID.TID 0000.0001)     2 @  0.000000000000000E+00,             /* K =  5:  6 */
(PID.TID 0000.0001)                 2.632794562663490E-04,      /* K =  7 */
(PID.TID 0000.0001)                 2.554318021231947E-04,      /* K =  8 */
(PID.TID 0000.0001)                 0.000000000000000E+00,      /* K =  9 */
(PID.TID 0000.0001)                 2.461524232360561E-04,      /* K = 10 */
(PID.TID 0000.0001)                 2.348694431245364E-04,      /* K = 11 */
(PID.TID 0000.0001)                 0.000000000000000E+00,      /* K = 12 */
(PID.TID 0000.0001)                 2.056847859884566E-04,      /* K = 13 */
(PID.TID 0000.0001)                 1.777764506003336E-04,      /* K = 14 */
(PID.TID 0000.0001)                 0.000000000000000E+00,      /* K = 15 */
(PID.TID 0000.0001)                 1.203533867077665E-04,      /* K = 16 */
(PID.TID 0000.0001)                 9.288540355629585E-05,      /* K = 17 */
(PID.TID 0000.0001)                 7.115862770365155E-05,      /* K = 18 */
(PID.TID 0000.0001)                 5.484365820533800E-05,      /* K = 19 */
(PID.TID 0000.0001)                 4.290935507113214E-05,      /* K = 20 */
(PID.TID 0000.0001)                 6.658747741703880E-05,      /* K = 21 */
(PID.TID 0000.0001)                 0.000000000000000E+00,      /* K = 22 */
(PID.TID 0000.0001)                 2.323718420342036E-05,      /* K = 23 */
(PID.TID 0000.0001)                 1.974682037962757E-05,      /* K = 24 */
(PID.TID 0000.0001)                 1.709468932536602E-05,      /* K = 25 */
(PID.TID 0000.0001)                 0.000000000000000E+00,      /* K = 26 */
(PID.TID 0000.0001)                 1.455436545977052E-05,      /* K = 27 */
(PID.TID 0000.0001)                 0.000000000000000E+00,      /* K = 28 */
(PID.TID 0000.0001)                 1.315287111980149E-05,      /* K = 29 */
(PID.TID 0000.0001)     2 @  0.000000000000000E+00,             /* K = 30: 31 */
(PID.TID 0000.0001)                 1.240968507885233E-05,      /* K = 32 */
(PID.TID 0000.0001)     2 @  0.000000000000000E+00,             /* K = 33: 34 */
(PID.TID 0000.0001)                 1.045141607964570E-05,      /* K = 35 */
(PID.TID 0000.0001)     3 @  0.000000000000000E+00,             /* K = 36: 38 */
(PID.TID 0000.0001)                 6.628797113709505E-06,      /* K = 39 */
(PID.TID 0000.0001)    11 @  0.000000000000000E+00              /* K = 40: 50 */
(PID.TID 0000.0001)     ;
(PID.TID 0000.0001) rotateGrid = /* use rotated grid ( True/False ) */
(PID.TID 0000.0001)                   F
(PID.TID 0000.0001)     ;
(PID.TID 0000.0001) phiEuler = /* Euler angle, rotation about original z-coordinate [rad] */
(PID.TID 0000.0001)                 0.000000000000000E+00
(PID.TID 0000.0001)     ;
(PID.TID 0000.0001) thetaEuler = /* Euler angle, rotation about new x-coordinate [rad] */
(PID.TID 0000.0001)                 0.000000000000000E+00
(PID.TID 0000.0001)     ;
(PID.TID 0000.0001) psiEuler = /* Euler angle, rotation about new z-coordinate [rad] */
(PID.TID 0000.0001)                 0.000000000000000E+00
(PID.TID 0000.0001)     ;
(PID.TID 0000.0001) dxF =  /* dxF(:,1,:,1) ( units: m ) */
(PID.TID 0000.0001)                 2.071152825743187E+04,      /* I =  1 */
(PID.TID 0000.0001)                 2.070365142756831E+04,      /* I =  2 */
(PID.TID 0000.0001)                 2.069635296570141E+04,      /* I =  3 */
(PID.TID 0000.0001)                 2.068965358413176E+04,      /* I =  4 */
(PID.TID 0000.0001)                 2.068357195583360E+04,      /* I =  5 */
(PID.TID 0000.0001)                 2.067812475356784E+04,      /* I =  6 */
(PID.TID 0000.0001)                 2.067332670125947E+04,      /* I =  7 */
(PID.TID 0000.0001)                 2.066919060389092E+04,      /* I =  8 */
(PID.TID 0000.0001)                 2.066572738985245E+04,      /* I =  9 */
(PID.TID 0000.0001)                 2.066294615597989E+04,      /* I = 10 */
(PID.TID 0000.0001)                 2.066085425372315E+04,      /* I = 11 */
(PID.TID 0000.0001)                 2.065945771525925E+04,      /* I = 12 */
(PID.TID 0000.0001)                 2.065874381268158E+04,      /* I = 13 */
(PID.TID 0000.0001)                 2.065874381268158E+04,      /* I = 14 */
(PID.TID 0000.0001)                 2.065945771525925E+04,      /* I = 15 */
(PID.TID 0000.0001)                 2.066085425372316E+04,      /* I = 16 */
(PID.TID 0000.0001)                 2.066294615597989E+04,      /* I = 17 */
(PID.TID 0000.0001)                 2.066572738985245E+04,      /* I = 18 */
(PID.TID 0000.0001)                 2.066919060389088E+04,      /* I = 19 */
(PID.TID 0000.0001)                 2.067332670125956E+04,      /* I = 20 */
(PID.TID 0000.0001)                 2.067812475356780E+04,      /* I = 21 */
(PID.TID 0000.0001)                 2.068357195583360E+04,      /* I = 22 */
(PID.TID 0000.0001)                 2.068965358413182E+04,      /* I = 23 */
(PID.TID 0000.0001)                 2.069635296570133E+04,      /* I = 24 */
(PID.TID 0000.0001)                 2.070365142756836E+04,      /* I = 25 */
(PID.TID 0000.0001)                 2.071152825743182E+04,      /* I = 26 */
(PID.TID 0000.0001)                 2.071996065138743E+04,      /* I = 27 */
(PID.TID 0000.0001)                 2.072892365863983E+04,      /* I = 28 */
(PID.TID 0000.0001)                 2.073839012765668E+04,      /* I = 29 */
(PID.TID 0000.0001)                 2.074833063718403E+04       /* I = 30 */
(PID.TID 0000.0001)     ;
(PID.TID 0000.0001) dxF =  /* dxF(1,:,1,:) ( units: m ) */
(PID.TID 0000.0001)                 2.071152825743187E+04,      /* J =  1 */
(PID.TID 0000.0001)                 2.109117491456033E+04,      /* J =  2 */
(PID.TID 0000.0001)                 2.148525648961724E+04,      /* J =  3 */
(PID.TID 0000.0001)                 2.189377348588603E+04,      /* J =  4 */
(PID.TID 0000.0001)                 2.231672440915243E+04,      /* J =  5 */
(PID.TID 0000.0001)                 2.275410689480659E+04,      /* J =  6 */
(PID.TID 0000.0001)                 2.320591873318126E+04,      /* J =  7 */
(PID.TID 0000.0001)                 2.367215879054831E+04,      /* J =  8 */
(PID.TID 0000.0001)                 2.415282782538908E+04,      /* J =  9 */
(PID.TID 0000.0001)                 2.464792920101809E+04,      /* J = 10 */
(PID.TID 0000.0001)                 2.515746949702995E+04,      /* J = 11 */
(PID.TID 0000.0001)                 2.568145902315334E+04,      /* J = 12 */
(PID.TID 0000.0001)                 2.621991223981432E+04,      /* J = 13 */
(PID.TID 0000.0001)                 2.677284809033052E+04,      /* J = 14 */
(PID.TID 0000.0001)                 2.734029025013979E+04,      /* J = 15 */
(PID.TID 0000.0001)                 2.792226729855568E+04,      /* J = 16 */
(PID.TID 0000.0001)                 2.851881281852892E+04,      /* J = 17 */
(PID.TID 0000.0001)                 2.912996543046302E+04,      /* J = 18 */
(PID.TID 0000.0001)                 2.975576876502299E+04,      /* J = 19 */
(PID.TID 0000.0001)                 3.039627138062681E+04,      /* J = 20 */
(PID.TID 0000.0001)                 3.105152663065675E+04,      /* J = 21 */
(PID.TID 0000.0001)                 3.172159248542454E+04,      /* J = 22 */
(PID.TID 0000.0001)                 3.240653131349731E+04,      /* J = 23 */
(PID.TID 0000.0001)                 3.310640962675057E+04,      /* J = 24 */
(PID.TID 0000.0001)                 3.382129779388320E+04,      /* J = 25 */
(PID.TID 0000.0001)                 3.455126972555294E+04,      /* J = 26 */
(PID.TID 0000.0001)                 3.529640253603521E+04,      /* J = 27 */
(PID.TID 0000.0001)                 3.605677618612848E+04,      /* J = 28 */
(PID.TID 0000.0001)                 3.683247311866502E+04,      /* J = 29 */
(PID.TID 0000.0001)                 3.762357793548112E+04       /* J = 30 */
(PID.TID 0000.0001)     ;
(PID.TID 0000.0001) dyF =  /* dyF(:,1,:,1) ( units: m ) */
(PID.TID 0000.0001)                 3.700742300337598E+04,      /* I =  1 */
(PID.TID 0000.0001)                 3.707905556394973E+04,      /* I =  2 */
(PID.TID 0000.0001)                 3.714471828319018E+04,      /* I =  3 */
(PID.TID 0000.0001)                 3.720441078960103E+04,      /* I =  4 */
(PID.TID 0000.0001)                 3.725813297080282E+04,      /* I =  5 */
(PID.TID 0000.0001)                 3.730588490725751E+04,      /* I =  6 */
(PID.TID 0000.0001)                 3.734766681359038E+04,      /* I =  7 */
(PID.TID 0000.0001)                 3.738347898712025E+04,      /* I =  8 */
(PID.TID 0000.0001)                 3.741332176340629E+04,      /* I =  9 */
(PID.TID 0000.0001)                 3.743719547859261E+04,      /* I = 10 */
(PID.TID 0000.0001)                 3.745510043824806E+04,      /* I = 11 */
(PID.TID 0000.0001)                 3.746703689267323E+04,      /* I = 12 */
(PID.TID 0000.0001)     2 @  3.747300501832417E+04,             /* I = 13: 14 */
(PID.TID 0000.0001)                 3.746703689267323E+04,      /* I = 15 */
(PID.TID 0000.0001)                 3.745510043824806E+04,      /* I = 16 */
(PID.TID 0000.0001)                 3.743719547859261E+04,      /* I = 17 */
(PID.TID 0000.0001)                 3.741332176340628E+04,      /* I = 18 */
(PID.TID 0000.0001)                 3.738347898712024E+04,      /* I = 19 */
(PID.TID 0000.0001)                 3.734766681359040E+04,      /* I = 20 */
(PID.TID 0000.0001)                 3.730588490725750E+04,      /* I = 21 */
(PID.TID 0000.0001)                 3.725813297080281E+04,      /* I = 22 */
(PID.TID 0000.0001)                 3.720441078960103E+04,      /* I = 23 */
(PID.TID 0000.0001)                 3.714471828319017E+04,      /* I = 24 */
(PID.TID 0000.0001)                 3.707905556394973E+04,      /* I = 25 */
(PID.TID 0000.0001)                 3.700742300337599E+04,      /* I = 26 */
(PID.TID 0000.0001)                 3.692982130617692E+04,      /* I = 27 */
(PID.TID 0000.0001)                 3.684625159269555E+04,      /* I = 28 */
(PID.TID 0000.0001)                 3.675671548992459E+04,      /* I = 29 */
(PID.TID 0000.0001)                 3.666121523181524E+04       /* I = 30 */
(PID.TID 0000.0001)     ;
(PID.TID 0000.0001) dyF =  /* dyF(1,:,1,:) ( units: m ) */
(PID.TID 0000.0001)                 3.700742300337598E+04,      /* J =  1 */
(PID.TID 0000.0001)                 3.745555642044499E+04,      /* J =  2 */
(PID.TID 0000.0001)                 3.790206217653974E+04,      /* J =  3 */
(PID.TID 0000.0001)                 3.834684105117956E+04,      /* J =  4 */
(PID.TID 0000.0001)                 3.878979459357282E+04,      /* J =  5 */
(PID.TID 0000.0001)                 3.923082521328924E+04,      /* J =  6 */
(PID.TID 0000.0001)                 3.966983623246408E+04,      /* J =  7 */
(PID.TID 0000.0001)                 4.010673190475840E+04,      /* J =  8 */
(PID.TID 0000.0001)                 4.054141740950450E+04,      /* J =  9 */
(PID.TID 0000.0001)                 4.097379882434454E+04,      /* J = 10 */
(PID.TID 0000.0001)                 4.140378308084428E+04,      /* J = 11 */
(PID.TID 0000.0001)                 4.183127790875583E+04,      /* J = 12 */
(PID.TID 0000.0001)                 4.225619177206317E+04,      /* J = 13 */
(PID.TID 0000.0001)                 4.267843379867976E+04,      /* J = 14 */
(PID.TID 0000.0001)                 4.309791371221616E+04,      /* J = 15 */
(PID.TID 0000.0001)                 4.351454176087940E+04,      /* J = 16 */
(PID.TID 0000.0001)                 4.392822864881465E+04,      /* J = 17 */
(PID.TID 0000.0001)                 4.433888547805120E+04,      /* J = 18 */
(PID.TID 0000.0001)                 4.474642369096899E+04,      /* J = 19 */
(PID.TID 0000.0001)                 4.515075502217317E+04,      /* J = 20 */
(PID.TID 0000.0001)                 4.555179145554101E+04,      /* J = 21 */
(PID.TID 0000.0001)                 4.594944520275577E+04,      /* J = 22 */
(PID.TID 0000.0001)                 4.634362867401398E+04,      /* J = 23 */
(PID.TID 0000.0001)                 4.673425447947427E+04,      /* J = 24 */
(PID.TID 0000.0001)                 4.712123544873745E+04,      /* J = 25 */
(PID.TID 0000.0001)                 4.750448467975499E+04,      /* J = 26 */
(PID.TID 0000.0001)                 4.788391567392174E+04,      /* J = 27 */
(PID.TID 0000.0001)                 4.825944271092693E+04,      /* J = 28 */
(PID.TID 0000.0001)                 4.863098220111143E+04,      /* J = 29 */
(PID.TID 0000.0001)                 4.899845499569884E+04       /* J = 30 */
(PID.TID 0000.0001)     ;
(PID.TID 0000.0001) dxG =  /* dxG(:,1,:,1) ( units: m ) */
(PID.TID 0000.0001)                 2.052711702021451E+04,      /* I =  1 */
(PID.TID 0000.0001)                 2.051953983526162E+04,      /* I =  2 */
(PID.TID 0000.0001)                 2.051251425926268E+04,      /* I =  3 */
(PID.TID 0000.0001)                 2.050606148013825E+04,      /* I =  4 */
(PID.TID 0000.0001)                 2.050020059906299E+04,      /* I =  5 */
(PID.TID 0000.0001)                 2.049494867086169E+04,      /* I =  6 */
(PID.TID 0000.0001)                 2.049032075633103E+04,      /* I =  7 */
(PID.TID 0000.0001)                 2.048632995314923E+04,      /* I =  8 */
(PID.TID 0000.0001)                 2.048298743895549E+04,      /* I =  9 */
(PID.TID 0000.0001)                 2.048030251694177E+04,      /* I = 10 */
(PID.TID 0000.0001)                 2.047828270203973E+04,      /* I = 11 */
(PID.TID 0000.0001)                 2.047693414389448E+04,      /* I = 12 */
(PID.TID 0000.0001)     2 @  2.047624433858785E+04,             /* I = 13: 14 */
(PID.TID 0000.0001)                 2.047693414389443E+04,      /* I = 15 */
(PID.TID 0000.0001)                 2.047828270203978E+04,      /* I = 16 */
(PID.TID 0000.0001)                 2.048030251694177E+04,      /* I = 17 */
(PID.TID 0000.0001)                 2.048298743895548E+04,      /* I = 18 */
(PID.TID 0000.0001)                 2.048632995314927E+04,      /* I = 19 */
(PID.TID 0000.0001)                 2.049032075633093E+04,      /* I = 20 */
(PID.TID 0000.0001)                 2.049494867086174E+04,      /* I = 21 */
(PID.TID 0000.0001)                 2.050020059906297E+04,      /* I = 22 */
(PID.TID 0000.0001)                 2.050606148013830E+04,      /* I = 23 */
(PID.TID 0000.0001)                 2.051251425926268E+04,      /* I = 24 */
(PID.TID 0000.0001)                 2.051953983526163E+04,      /* I = 25 */
(PID.TID 0000.0001)                 2.052711702021443E+04,      /* I = 26 */
(PID.TID 0000.0001)                 2.053522248594683E+04,      /* I = 27 */
(PID.TID 0000.0001)                 2.054383070727552E+04,      /* I = 28 */
(PID.TID 0000.0001)                 2.055291390664790E+04,      /* I = 29 */
(PID.TID 0000.0001)                 2.056244198352907E+04       /* I = 30 */
(PID.TID 0000.0001)     ;
(PID.TID 0000.0001) dxG =  /* dxG(1,:,1,:) ( units: m ) */
(PID.TID 0000.0001)                 2.052711702021451E+04,      /* J =  1 */
(PID.TID 0000.0001)                 2.089954736357391E+04,      /* J =  2 */
(PID.TID 0000.0001)                 2.128641124518697E+04,      /* J =  3 */
(PID.TID 0000.0001)                 2.168771062037700E+04,      /* J =  4 */
(PID.TID 0000.0001)                 2.210344484655194E+04,      /* J =  5 */
(PID.TID 0000.0001)                 2.253361185972884E+04,      /* J =  6 */
(PID.TID 0000.0001)                 2.297820925105574E+04,      /* J =  7 */
(PID.TID 0000.0001)                 2.343723524028478E+04,      /* J =  8 */
(PID.TID 0000.0001)                 2.391068954427550E+04,      /* J =  9 */
(PID.TID 0000.0001)                 2.439857414125275E+04,      /* J = 10 */
(PID.TID 0000.0001)                 2.490089393241153E+04,      /* J = 11 */
(PID.TID 0000.0001)                 2.541765730414359E+04,      /* J = 12 */
(PID.TID 0000.0001)                 2.594887659459613E+04,      /* J = 13 */
(PID.TID 0000.0001)                 2.649456846940333E+04,      /* J = 14 */
(PID.TID 0000.0001)                 2.705475421181358E+04,      /* J = 15 */
(PID.TID 0000.0001)                 2.762945993231310E+04,      /* J = 16 */
(PID.TID 0000.0001)                 2.821871670385097E+04,      /* J = 17 */
(PID.TID 0000.0001)                 2.882256062780631E+04,      /* J = 18 */
(PID.TID 0000.0001)                 2.944103283669238E+04,      /* J = 19 */
(PID.TID 0000.0001)                 3.007417943861200E+04,      /* J = 20 */
(PID.TID 0000.0001)                 3.072205140902393E+04,      /* J = 21 */
(PID.TID 0000.0001)                 3.138470443467240E+04,      /* J = 22 */
(PID.TID 0000.0001)                 3.206219871470027E+04,      /* J = 23 */
(PID.TID 0000.0001)                 3.275459872326910E+04,      /* J = 24 */
(PID.TID 0000.0001)                 3.346197293831744E+04,      /* J = 25 */
(PID.TID 0000.0001)                 3.418439354048331E+04,      /* J = 26 */
(PID.TID 0000.0001)                 3.492193608585089E+04,      /* J = 27 */
(PID.TID 0000.0001)                 3.567467915738818E+04,      /* J = 28 */
(PID.TID 0000.0001)                 3.644270400216877E+04,      /* J = 29 */
(PID.TID 0000.0001)                 3.722609417427087E+04       /* J = 30 */
(PID.TID 0000.0001)     ;
(PID.TID 0000.0001) dyG =  /* dyG(:,1,:,1) ( units: m ) */
(PID.TID 0000.0001)                 3.696936823759973E+04,      /* I =  1 */
(PID.TID 0000.0001)                 3.704398547852144E+04,      /* I =  2 */
(PID.TID 0000.0001)                 3.711263318385338E+04,      /* I =  3 */
(PID.TID 0000.0001)                 3.717531082528212E+04,      /* I =  4 */
(PID.TID 0000.0001)                 3.723201816961422E+04,      /* I =  5 */
(PID.TID 0000.0001)                 3.728275520872145E+04,      /* I =  6 */
(PID.TID 0000.0001)                 3.732752209699158E+04,      /* I =  7 */
(PID.TID 0000.0001)                 3.736631909640826E+04,      /* I =  8 */
(PID.TID 0000.0001)                 3.739914652852553E+04,      /* I =  9 */
(PID.TID 0000.0001)                 3.742600473350589E+04,      /* I = 10 */
(PID.TID 0000.0001)                 3.744689403567852E+04,      /* I = 11 */
(PID.TID 0000.0001)                 3.746181471567877E+04,      /* I = 12 */
(PID.TID 0000.0001)                 3.747076698884368E+04,      /* I = 13 */
(PID.TID 0000.0001)                 3.747376174977726E+04,      /* I = 14 */
(PID.TID 0000.0001)                 3.747076698884368E+04,      /* I = 15 */
(PID.TID 0000.0001)                 3.746181471567877E+04,      /* I = 16 */
(PID.TID 0000.0001)                 3.744689403567852E+04,      /* I = 17 */
(PID.TID 0000.0001)                 3.742600473350589E+04,      /* I = 18 */
(PID.TID 0000.0001)                 3.739914652852552E+04,      /* I = 19 */
(PID.TID 0000.0001)                 3.736631909640826E+04,      /* I = 20 */
(PID.TID 0000.0001)                 3.732752209699157E+04,      /* I = 21 */
(PID.TID 0000.0001)                 3.728275520872146E+04,      /* I = 22 */
(PID.TID 0000.0001)                 3.723201816961422E+04,      /* I = 23 */
(PID.TID 0000.0001)                 3.717531082528211E+04,      /* I = 24 */
(PID.TID 0000.0001)                 3.711263318385338E+04,      /* I = 25 */
(PID.TID 0000.0001)                 3.704398547852145E+04,      /* I = 26 */
(PID.TID 0000.0001)                 3.696936823759972E+04,      /* I = 27 */
(PID.TID 0000.0001)                 3.688878236278851E+04,      /* I = 28 */
(PID.TID 0000.0001)                 3.680222921581766E+04,      /* I = 29 */
(PID.TID 0000.0001)                 3.670971071402137E+04       /* I = 30 */
(PID.TID 0000.0001)     ;
(PID.TID 0000.0001) dyG =  /* dyG(1,:,1,:) ( units: m ) */
(PID.TID 0000.0001)                 3.696936823759973E+04,      /* J =  1 */
(PID.TID 0000.0001)                 3.741746190559281E+04,      /* J =  2 */
(PID.TID 0000.0001)                 3.786390067184393E+04,      /* J =  3 */
(PID.TID 0000.0001)                 3.830858172733455E+04,      /* J =  4 */
(PID.TID 0000.0001)                 3.875140319955796E+04,      /* J =  5 */
(PID.TID 0000.0001)                 3.919226424948571E+04,      /* J =  6 */
(PID.TID 0000.0001)                 3.963106512715793E+04,      /* J =  7 */
(PID.TID 0000.0001)                 4.006770719102380E+04,      /* J =  8 */
(PID.TID 0000.0001)                 4.050209290047463E+04,      /* J =  9 */
(PID.TID 0000.0001)                 4.093412578484027E+04,      /* J = 10 */
(PID.TID 0000.0001)                 4.136371039407872E+04,      /* J = 11 */
(PID.TID 0000.0001)                 4.179075223673176E+04,      /* J = 12 */
(PID.TID 0000.0001)                 4.221515770920290E+04,      /* J = 13 */
(PID.TID 0000.0001)                 4.263683401805614E+04,      /* J = 14 */
(PID.TID 0000.0001)                 4.305568910412182E+04,      /* J = 15 */
(PID.TID 0000.0001)                 4.347163156363047E+04,      /* J = 16 */
(PID.TID 0000.0001)                 4.388457057225752E+04,      /* J = 17 */
(PID.TID 0000.0001)                 4.429441581934092E+04,      /* J = 18 */
(PID.TID 0000.0001)                 4.470107744374240E+04,      /* J = 19 */
(PID.TID 0000.0001)                 4.510446597891348E+04,      /* J = 20 */
(PID.TID 0000.0001)                 4.550449230395439E+04,      /* J = 21 */
(PID.TID 0000.0001)                 4.590106761654920E+04,      /* J = 22 */
(PID.TID 0000.0001)                 4.629410339849156E+04,      /* J = 23 */
(PID.TID 0000.0001)                 4.668351141269982E+04,      /* J = 24 */
(PID.TID 0000.0001)                 4.706920371856177E+04,      /* J = 25 */
(PID.TID 0000.0001)                 4.745109271730031E+04,      /* J = 26 */
(PID.TID 0000.0001)                 4.782909128417812E+04,      /* J = 27 */
(PID.TID 0000.0001)                 4.820311314005602E+04,      /* J = 28 */
(PID.TID 0000.0001)                 4.857307420014453E+04,      /* J = 29 */
(PID.TID 0000.0001)                 4.893889490827491E+04       /* J = 30 */
(PID.TID 0000.0001)     ;
(PID.TID 0000.0001) dxC =  /* dxC(:,1,:,1) ( units: m ) */
(PID.TID 0000.0001)                 2.071567651695695E+04,      /* I =  1 */
(PID.TID 0000.0001)                 2.070751892245589E+04,      /* I =  2 */
(PID.TID 0000.0001)                 2.069992855779408E+04,      /* I =  3 */
(PID.TID 0000.0001)                 2.069292717562287E+04,      /* I =  4 */
(PID.TID 0000.0001)                 2.068653446229046E+04,      /* I =  5 */
(PID.TID 0000.0001)                 2.068076808552306E+04,      /* I =  6 */
(PID.TID 0000.0001)                 2.067564373903614E+04,      /* I =  7 */
(PID.TID 0000.0001)                 2.067117518190149E+04,      /* I =  8 */
(PID.TID 0000.0001)                 2.066737427558298E+04,      /* I =  9 */
(PID.TID 0000.0001)                 2.066425102685107E+04,      /* I = 10 */
(PID.TID 0000.0001)                 2.066181364132844E+04,      /* I = 11 */
(PID.TID 0000.0001)                 2.066006869803818E+04,      /* I = 12 */
(PID.TID 0000.0001)                 2.065902266229015E+04,      /* I = 13 */
(PID.TID 0000.0001)                 2.065863826775786E+04,      /* I = 14 */
(PID.TID 0000.0001)                 2.065902266229016E+04,      /* I = 15 */
(PID.TID 0000.0001)                 2.066006869803813E+04,      /* I = 16 */
(PID.TID 0000.0001)                 2.066181364132850E+04,      /* I = 17 */
(PID.TID 0000.0001)                 2.066425102685108E+04,      /* I = 18 */
(PID.TID 0000.0001)                 2.066737427558298E+04,      /* I = 19 */
(PID.TID 0000.0001)                 2.067117518190149E+04,      /* I = 20 */
(PID.TID 0000.0001)                 2.067564373903615E+04,      /* I = 21 */
(PID.TID 0000.0001)                 2.068076808552304E+04,      /* I = 22 */
(PID.TID 0000.0001)                 2.068653446229045E+04,      /* I = 23 */
(PID.TID 0000.0001)                 2.069292717562287E+04,      /* I = 24 */
(PID.TID 0000.0001)                 2.069992855779413E+04,      /* I = 25 */
(PID.TID 0000.0001)                 2.070751892245584E+04,      /* I = 26 */
(PID.TID 0000.0001)                 2.071567651695691E+04,      /* I = 27 */
(PID.TID 0000.0001)                 2.072437747324421E+04,      /* I = 28 */
(PID.TID 0000.0001)                 2.073359574551806E+04,      /* I = 29 */
(PID.TID 0000.0001)                 2.074330305575613E+04       /* I = 30 */
(PID.TID 0000.0001)     ;
(PID.TID 0000.0001) dxC =  /* dxC(1,:,1,:) ( units: m ) */
(PID.TID 0000.0001)                 2.071567651695695E+04,      /* J =  1 */
(PID.TID 0000.0001)                 2.109563672137949E+04,      /* J =  2 */
(PID.TID 0000.0001)                 2.149002149497106E+04,      /* J =  3 */
(PID.TID 0000.0001)                 2.189882927482529E+04,      /* J =  4 */
(PID.TID 0000.0001)                 2.232205646389843E+04,      /* J =  5 */
(PID.TID 0000.0001)                 2.275969855854128E+04,      /* J =  6 */
(PID.TID 0000.0001)                 2.321175117362029E+04,      /* J =  7 */
(PID.TID 0000.0001)                 2.367821096276529E+04,      /* J =  8 */
(PID.TID 0000.0001)                 2.415907643347346E+04,      /* J =  9 */
(PID.TID 0000.0001)                 2.465434865814045E+04,      /* J = 10 */
(PID.TID 0000.0001)                 2.516403188365780E+04,      /* J = 11 */
(PID.TID 0000.0001)                 2.568813404310613E+04,      /* J = 12 */
(PID.TID 0000.0001)                 2.622666717399572E+04,      /* J = 13 */
(PID.TID 0000.0001)                 2.677964774799169E+04,      /* J = 14 */
(PID.TID 0000.0001)                 2.734709691757753E+04,      /* J = 15 */
(PID.TID 0000.0001)                 2.792904068517491E+04,      /* J = 16 */
(PID.TID 0000.0001)                 2.852551000032625E+04,      /* J = 17 */
(PID.TID 0000.0001)                 2.913654079081990E+04,      /* J = 18 */
(PID.TID 0000.0001)                 2.976217393306023E+04,      /* J = 19 */
(PID.TID 0000.0001)                 3.040245516699173E+04,      /* J = 20 */
(PID.TID 0000.0001)                 3.105743496108396E+04,      /* J = 21 */
(PID.TID 0000.0001)                 3.172716833208323E+04,      /* J = 22 */
(PID.TID 0000.0001)                 3.241171462422546E+04,      /* J = 23 */
(PID.TID 0000.0001)                 3.311113725244482E+04,      /* J = 24 */
(PID.TID 0000.0001)                 3.382550341391024E+04,      /* J = 25 */
(PID.TID 0000.0001)                 3.455488377140061E+04,      /* J = 26 */
(PID.TID 0000.0001)                 3.529935211332738E+04,      /* J = 27 */
(PID.TID 0000.0001)                 3.605898499520765E+04,      /* J = 28 */
(PID.TID 0000.0001)                 3.683386137397906E+04,      /* J = 29 */
(PID.TID 0000.0001)                 3.762406228407349E+04       /* J = 30 */
(PID.TID 0000.0001)     ;
(PID.TID 0000.0001) dyC =  /* dyC(:,1,:,1) ( units: m ) */
(PID.TID 0000.0001)                 3.678277710845771E+04,      /* I =  1 */
(PID.TID 0000.0001)                 3.685438685866048E+04,      /* I =  2 */
(PID.TID 0000.0001)                 3.692002588020908E+04,      /* I =  3 */
(PID.TID 0000.0001)                 3.697969453541307E+04,      /* I =  4 */
(PID.TID 0000.0001)                 3.703339337607873E+04,      /* I =  5 */
(PID.TID 0000.0001)                 3.708112307814123E+04,      /* I =  6 */
(PID.TID 0000.0001)                 3.712288438364359E+04,      /* I =  7 */
(PID.TID 0000.0001)                 3.715867804995441E+04,      /* I =  8 */
(PID.TID 0000.0001)                 3.718850480589901E+04,      /* I =  9 */
(PID.TID 0000.0001)                 3.721236531452968E+04,      /* I = 10 */
(PID.TID 0000.0001)                 3.723026014246432E+04,      /* I = 11 */
(PID.TID 0000.0001)                 3.724218973548726E+04,      /* I = 12 */
(PID.TID 0000.0001)     2 @  3.724815440020872E+04,             /* I = 13: 14 */
(PID.TID 0000.0001)                 3.724218973548726E+04,      /* I = 15 */
(PID.TID 0000.0001)                 3.723026014246432E+04,      /* I = 16 */
(PID.TID 0000.0001)                 3.721236531452968E+04,      /* I = 17 */
(PID.TID 0000.0001)                 3.718850480589901E+04,      /* I = 18 */
(PID.TID 0000.0001)                 3.715867804995440E+04,      /* I = 19 */
(PID.TID 0000.0001)                 3.712288438364359E+04,      /* I = 20 */
(PID.TID 0000.0001)                 3.708112307814122E+04,      /* I = 21 */
(PID.TID 0000.0001)                 3.703339337607873E+04,      /* I = 22 */
(PID.TID 0000.0001)                 3.697969453541307E+04,      /* I = 23 */
(PID.TID 0000.0001)                 3.692002588020908E+04,      /* I = 24 */
(PID.TID 0000.0001)                 3.685438685866047E+04,      /* I = 25 */
(PID.TID 0000.0001)                 3.678277710845772E+04,      /* I = 26 */
(PID.TID 0000.0001)                 3.670519653011381E+04,      /* I = 27 */
(PID.TID 0000.0001)                 3.662164536844059E+04,      /* I = 28 */
(PID.TID 0000.0001)                 3.653212430257830E+04,      /* I = 29 */
(PID.TID 0000.0001)                 3.643663454523116E+04       /* I = 30 */
(PID.TID 0000.0001)     ;
(PID.TID 0000.0001) dyC =  /* dyC(1,:,1,:) ( units: m ) */
(PID.TID 0000.0001)                 3.678277710845771E+04,      /* J =  1 */
(PID.TID 0000.0001)                 3.723168694115569E+04,      /* J =  2 */
(PID.TID 0000.0001)                 3.767901897410101E+04,      /* J =  3 */
(PID.TID 0000.0001)                 3.812467364657602E+04,      /* J =  4 */
(PID.TID 0000.0001)                 3.856855210935249E+04,      /* J =  5 */
(PID.TID 0000.0001)                 3.901055633269680E+04,      /* J =  6 */
(PID.TID 0000.0001)                 3.945058917911859E+04,      /* J =  7 */
(PID.TID 0000.0001)                 3.988855443472220E+04,      /* J =  8 */
(PID.TID 0000.0001)                 4.032435681898361E+04,      /* J =  9 */
(PID.TID 0000.0001)                 4.075790196435841E+04,      /* J = 10 */
(PID.TID 0000.0001)                 4.118909638222960E+04,      /* J = 11 */
(PID.TID 0000.0001)                 4.161784741043697E+04,      /* J = 12 */
(PID.TID 0000.0001)                 4.204406315499045E+04,      /* J = 13 */
(PID.TID 0000.0001)                 4.246765242091182E+04,      /* J = 14 */
(PID.TID 0000.0001)                 4.288852464034393E+04,      /* J = 15 */
(PID.TID 0000.0001)                 4.330658981118225E+04,      /* J = 16 */
(PID.TID 0000.0001)                 4.372175841431943E+04,      /* J = 17 */
(PID.TID 0000.0001)                 4.413394136293020E+04,      /* J = 18 */
(PID.TID 0000.0001)                 4.454304993440304E+04,      /* J = 19 */
(PID.TID 0000.0001)                 4.494899572325061E+04,      /* J = 20 */
(PID.TID 0000.0001)                 4.535169059286820E+04,      /* J = 21 */
(PID.TID 0000.0001)                 4.575104664412256E+04,      /* J = 22 */
(PID.TID 0000.0001)                 4.614697618947234E+04,      /* J = 23 */
(PID.TID 0000.0001)                 4.653939173844085E+04,      /* J = 24 */
(PID.TID 0000.0001)                 4.692820600744408E+04,      /* J = 25 */
(PID.TID 0000.0001)                 4.731333194957835E+04,      /* J = 26 */
(PID.TID 0000.0001)                 4.769468283927006E+04,      /* J = 27 */
(PID.TID 0000.0001)                 4.807217249390641E+04,      /* J = 28 */
(PID.TID 0000.0001)                 4.844571593362943E+04,      /* J = 29 */
(PID.TID 0000.0001)                 4.881523285497380E+04       /* J = 30 */
(PID.TID 0000.0001)     ;
(PID.TID 0000.0001) dxV =  /* dxV(:,1,:,1) ( units: m ) */
(PID.TID 0000.0001)                 2.053110526075532E+04,      /* I =  1 */
(PID.TID 0000.0001)                 2.052326088418283E+04,      /* I =  2 */
(PID.TID 0000.0001)                 2.051595672244828E+04,      /* I =  3 */
(PID.TID 0000.0001)                 2.050921502797681E+04,      /* I =  4 */
(PID.TID 0000.0001)                 2.050305593886370E+04,      /* I =  5 */
(PID.TID 0000.0001)                 2.049749752783181E+04,      /* I =  6 */
(PID.TID 0000.0001)                 2.049255584793284E+04,      /* I =  7 */
(PID.TID 0000.0001)                 2.048824497292525E+04,      /* I =  8 */
(PID.TID 0000.0001)                 2.048457703515834E+04,      /* I =  9 */
(PID.TID 0000.0001)                 2.048156226915133E+04,      /* I = 10 */
(PID.TID 0000.0001)                 2.047920906551970E+04,      /* I = 11 */
(PID.TID 0000.0001)                 2.047752414469434E+04,      /* I = 12 */
(PID.TID 0000.0001)                 2.047651405696554E+04,      /* I = 13 */
(PID.TID 0000.0001)                 2.047614194664622E+04,      /* I = 14 */
(PID.TID 0000.0001)                 2.047651405696559E+04,      /* I = 15 */
(PID.TID 0000.0001)                 2.047752414469430E+04,      /* I = 16 */
(PID.TID 0000.0001)                 2.047920906551971E+04,      /* I = 17 */
(PID.TID 0000.0001)                 2.048156226915138E+04,      /* I = 18 */
(PID.TID 0000.0001)                 2.048457703515829E+04,      /* I = 19 */
(PID.TID 0000.0001)                 2.048824497292535E+04,      /* I = 20 */
(PID.TID 0000.0001)                 2.049255584793274E+04,      /* I = 21 */
(PID.TID 0000.0001)                 2.049749752783187E+04,      /* I = 22 */
(PID.TID 0000.0001)                 2.050305593886373E+04,      /* I = 23 */
(PID.TID 0000.0001)                 2.050921502797675E+04,      /* I = 24 */
(PID.TID 0000.0001)                 2.051595672244826E+04,      /* I = 25 */
(PID.TID 0000.0001)                 2.052326088418290E+04,      /* I = 26 */
(PID.TID 0000.0001)                 2.053110526075532E+04,      /* I = 27 */
(PID.TID 0000.0001)                 2.053946543494557E+04,      /* I = 28 */
(PID.TID 0000.0001)                 2.054831476098181E+04,      /* I = 29 */
(PID.TID 0000.0001)                 2.055762430839241E+04       /* I = 30 */
(PID.TID 0000.0001)     ;
(PID.TID 0000.0001) dxV =  /* dxV(1,:,1,:) ( units: m ) */
(PID.TID 0000.0001)                 2.053110526075532E+04,      /* J =  1 */
(PID.TID 0000.0001)                 2.090385356266093E+04,      /* J =  2 */
(PID.TID 0000.0001)                 2.129102607314009E+04,      /* J =  3 */
(PID.TID 0000.0001)                 2.169262269996662E+04,      /* J =  4 */
(PID.TID 0000.0001)                 2.210864071595607E+04,      /* J =  5 */
(PID.TID 0000.0001)                 2.253907593617405E+04,      /* J =  6 */
(PID.TID 0000.0001)                 2.298392379458377E+04,      /* J =  7 */
(PID.TID 0000.0001)                 2.344318031700113E+04,      /* J =  8 */
(PID.TID 0000.0001)                 2.391684298864163E+04,      /* J =  9 */
(PID.TID 0000.0001)                 2.440491151699962E+04,      /* J = 10 */
(PID.TID 0000.0001)                 2.490738849171163E+04,      /* J = 11 */
(PID.TID 0000.0001)                 2.542427994477456E+04,      /* J = 12 */
(PID.TID 0000.0001)                 2.595559581485789E+04,      /* J = 13 */
(PID.TID 0000.0001)                 2.650135032062733E+04,      /* J = 14 */
(PID.TID 0000.0001)                 2.706156224833991E+04,      /* J = 15 */
(PID.TID 0000.0001)                 2.763625515890197E+04,      /* J = 16 */
(PID.TID 0000.0001)                 2.822545752042790E+04,      /* J = 17 */
(PID.TID 0000.0001)                 2.882920277162976E+04,      /* J = 18 */
(PID.TID 0000.0001)                 2.944752932187136E+04,      /* J = 19 */
(PID.TID 0000.0001)                 3.008048049319959E+04,      /* J = 20 */
(PID.TID 0000.0001)                 3.072810440966728E+04,      /* J = 21 */
(PID.TID 0000.0001)                 3.139045383903842E+04,      /* J = 22 */
(PID.TID 0000.0001)                 3.206758599174654E+04,      /* J = 23 */
(PID.TID 0000.0001)                 3.275956228156967E+04,      /* J = 24 */
(PID.TID 0000.0001)                 3.346644805244220E+04,      /* J = 25 */
(PID.TID 0000.0001)                 3.418831227550044E+04,      /* J = 26 */
(PID.TID 0000.0001)                 3.492522722017510E+04,      /* J = 27 */
(PID.TID 0000.0001)                 3.567726810399632E+04,      /* J = 28 */
(PID.TID 0000.0001)                 3.644451272859776E+04,      /* J = 29 */
(PID.TID 0000.0001)                 3.722704112152557E+04       /* J = 30 */
(PID.TID 0000.0001)     ;
(PID.TID 0000.0001) dyU =  /* dyU(:,1,:,1) ( units: m ) */
(PID.TID 0000.0001)                 3.674473316658630E+04,      /* I =  1 */
(PID.TID 0000.0001)                 3.681932833792822E+04,      /* I =  2 */
(PID.TID 0000.0001)                 3.688795269313092E+04,      /* I =  3 */
(PID.TID 0000.0001)                 3.695060647275718E+04,      /* I =  4 */
(PID.TID 0000.0001)                 3.700729014250917E+04,      /* I =  5 */
(PID.TID 0000.0001)                 3.705800432398131E+04,      /* I =  6 */
(PID.TID 0000.0001)                 3.710274973294064E+04,      /* I =  7 */
(PID.TID 0000.0001)                 3.714152712500728E+04,      /* I =  8 */
(PID.TID 0000.0001)                 3.717433724834998E+04,      /* I =  9 */
(PID.TID 0000.0001)                 3.720118080314009E+04,      /* I = 10 */
(PID.TID 0000.0001)                 3.722205840764935E+04,      /* I = 11 */
(PID.TID 0000.0001)                 3.723697057073888E+04,      /* I = 12 */
(PID.TID 0000.0001)                 3.724591767054543E+04,      /* I = 13 */
(PID.TID 0000.0001)                 3.724891083990022E+04,      /* I = 14 */
(PID.TID 0000.0001)                 3.724591767054542E+04,      /* I = 15 */
(PID.TID 0000.0001)                 3.723697057073889E+04,      /* I = 16 */
(PID.TID 0000.0001)                 3.722205840764935E+04,      /* I = 17 */
(PID.TID 0000.0001)                 3.720118080314008E+04,      /* I = 18 */
(PID.TID 0000.0001)                 3.717433724834998E+04,      /* I = 19 */
(PID.TID 0000.0001)                 3.714152712500728E+04,      /* I = 20 */
(PID.TID 0000.0001)                 3.710274973294063E+04,      /* I = 21 */
(PID.TID 0000.0001)                 3.705800432398131E+04,      /* I = 22 */
(PID.TID 0000.0001)                 3.700729014250917E+04,      /* I = 23 */
(PID.TID 0000.0001)                 3.695060647275716E+04,      /* I = 24 */
(PID.TID 0000.0001)                 3.688795269313094E+04,      /* I = 25 */
(PID.TID 0000.0001)                 3.681932833792821E+04,      /* I = 26 */
(PID.TID 0000.0001)                 3.674473316658630E+04,      /* I = 27 */
(PID.TID 0000.0001)                 3.666416724104654E+04,      /* I = 28 */
(PID.TID 0000.0001)                 3.657763101146962E+04,      /* I = 29 */
(PID.TID 0000.0001)                 3.648512541079492E+04       /* I = 30 */
(PID.TID 0000.0001)     ;
(PID.TID 0000.0001) dyU =  /* dyU(1,:,1,:) ( units: m ) */
(PID.TID 0000.0001)                 3.674473316658630E+04,      /* J =  1 */
(PID.TID 0000.0001)                 3.719361547538896E+04,      /* J =  2 */
(PID.TID 0000.0001)                 3.764089459751266E+04,      /* J =  3 */
(PID.TID 0000.0001)                 3.808646730382765E+04,      /* J =  4 */
(PID.TID 0000.0001)                 3.853023123895088E+04,      /* J =  5 */
(PID.TID 0000.0001)                 3.897208503739593E+04,      /* J =  6 */
(PID.TID 0000.0001)                 3.941192840112046E+04,      /* J =  7 */
(PID.TID 0000.0001)                 3.984966213263487E+04,      /* J =  8 */
(PID.TID 0000.0001)                 4.028518814419441E+04,      /* J =  9 */
(PID.TID 0000.0001)                 4.071840943468107E+04,      /* J = 10 */
(PID.TID 0000.0001)                 4.114923005120406E+04,      /* J = 11 */
(PID.TID 0000.0001)                 4.157755503103340E+04,      /* J = 12 */
(PID.TID 0000.0001)                 4.200329033666767E+04,      /* J = 13 */
(PID.TID 0000.0001)                 4.242634277960793E+04,      /* J = 14 */
(PID.TID 0000.0001)                 4.284661994092684E+04,      /* J = 15 */
(PID.TID 0000.0001)                 4.326403010205203E+04,      /* J = 16 */
(PID.TID 0000.0001)                 4.367848215462093E+04,      /* J = 17 */
(PID.TID 0000.0001)                 4.408988554208750E+04,      /* J = 18 */
(PID.TID 0000.0001)                 4.449815018464295E+04,      /* J = 19 */
(PID.TID 0000.0001)                 4.490318642518511E+04,      /* J = 20 */
(PID.TID 0000.0001)                 4.530490497491705E+04,      /* J = 21 */
(PID.TID 0000.0001)                 4.570321687598708E+04,      /* J = 22 */
(PID.TID 0000.0001)                 4.609803347024994E+04,      /* J = 23 */
(PID.TID 0000.0001)                 4.648926637992392E+04,      /* J = 24 */
(PID.TID 0000.0001)                 4.687682751321772E+04,      /* J = 25 */
(PID.TID 0000.0001)                 4.726062909013533E+04,      /* J = 26 */
(PID.TID 0000.0001)                 4.764058372401170E+04,      /* J = 27 */
(PID.TID 0000.0001)                 4.801660464021451E+04,      /* J = 28 */
(PID.TID 0000.0001)                 4.838860633247659E+04,      /* J = 29 */
(PID.TID 0000.0001)                 4.875650803021456E+04       /* J = 30 */
(PID.TID 0000.0001)     ;
(PID.TID 0000.0001) rA  =  /* rA (:,1,:,1) ( units: m^2 ) */
(PID.TID 0000.0001)                 7.665113621396177E+08,      /* I =  1 */
(PID.TID 0000.0001)                 7.677029697239892E+08,      /* I =  2 */
(PID.TID 0000.0001)                 7.687913877455838E+08,      /* I =  3 */
(PID.TID 0000.0001)                 7.697775979751738E+08,      /* I =  4 */
(PID.TID 0000.0001)                 7.706625466485583E+08,      /* I =  5 */
(PID.TID 0000.0001)                 7.714470546020026E+08,      /* I =  6 */
(PID.TID 0000.0001)                 7.721318586456149E+08,      /* I =  7 */
(PID.TID 0000.0001)                 7.727176271684608E+08,      /* I =  8 */
(PID.TID 0000.0001)                 7.732049082776864E+08,      /* I =  9 */
(PID.TID 0000.0001)                 7.735941717305043E+08,      /* I = 10 */
(PID.TID 0000.0001)                 7.738858051500469E+08,      /* I = 11 */
(PID.TID 0000.0001)                 7.740801100790358E+08,      /* I = 12 */
(PID.TID 0000.0001)                 7.741766386182301E+08,      /* I = 13 */
(PID.TID 0000.0001)                 7.741766369784317E+08,      /* I = 14 */
(PID.TID 0000.0001)                 7.740801094843833E+08,      /* I = 15 */
(PID.TID 0000.0001)                 7.738858062852919E+08,      /* I = 16 */
(PID.TID 0000.0001)                 7.735941726495122E+08,      /* I = 17 */
(PID.TID 0000.0001)                 7.732049061873938E+08,      /* I = 18 */
(PID.TID 0000.0001)                 7.727176277450933E+08,      /* I = 19 */
(PID.TID 0000.0001)                 7.721318658895597E+08,      /* I = 20 */
(PID.TID 0000.0001)                 7.714470531424019E+08,      /* I = 21 */
(PID.TID 0000.0001)                 7.706625470810328E+08,      /* I = 22 */
(PID.TID 0000.0001)                 7.697776024260553E+08,      /* I = 23 */
(PID.TID 0000.0001)                 7.687913844659867E+08,      /* I = 24 */
(PID.TID 0000.0001)                 7.677029712196296E+08,      /* I = 25 */
(PID.TID 0000.0001)                 7.665113646083255E+08,      /* I = 26 */
(PID.TID 0000.0001)                 7.652154604170089E+08,      /* I = 27 */
(PID.TID 0000.0001)                 7.638140926048064E+08,      /* I = 28 */
(PID.TID 0000.0001)                 7.623059927966076E+08,      /* I = 29 */
(PID.TID 0000.0001)                 7.606898330980235E+08       /* I = 30 */
(PID.TID 0000.0001)     ;
(PID.TID 0000.0001) rA  =  /* rA (1,:,1,:) ( units: m^2 ) */
(PID.TID 0000.0001)                 7.665113621396177E+08,      /* J =  1 */
(PID.TID 0000.0001)                 7.900134359449342E+08,      /* J =  2 */
(PID.TID 0000.0001)                 8.143679155417176E+08,      /* J =  3 */
(PID.TID 0000.0001)                 8.395900636155584E+08,      /* J =  4 */
(PID.TID 0000.0001)                 8.656947784023314E+08,      /* J =  5 */
(PID.TID 0000.0001)                 8.926966010402582E+08,      /* J =  6 */
(PID.TID 0000.0001)                 9.206097737377057E+08,      /* J =  7 */
(PID.TID 0000.0001)                 9.494482582794807E+08,      /* J =  8 */
(PID.TID 0000.0001)                 9.792257431806778E+08,      /* J =  9 */
(PID.TID 0000.0001)                 1.009955679131553E+09,      /* J = 10 */
(PID.TID 0000.0001)                 1.041651296044221E+09,      /* J = 11 */
(PID.TID 0000.0001)                 1.074325614369065E+09,      /* J = 12 */
(PID.TID 0000.0001)                 1.107991467925779E+09,      /* J = 13 */
(PID.TID 0000.0001)                 1.142661498173082E+09,      /* J = 14 */
(PID.TID 0000.0001)                 1.178348167164929E+09,      /* J = 15 */
(PID.TID 0000.0001)                 1.215063762235644E+09,      /* J = 16 */
(PID.TID 0000.0001)                 1.252820414073754E+09,      /* J = 17 */
(PID.TID 0000.0001)                 1.291630043617734E+09,      /* J = 18 */
(PID.TID 0000.0001)                 1.331504416619858E+09,      /* J = 19 */
(PID.TID 0000.0001)                 1.372455096362339E+09,      /* J = 20 */
(PID.TID 0000.0001)                 1.414493440828222E+09,      /* J = 21 */
(PID.TID 0000.0001)                 1.457630613639386E+09,      /* J = 22 */
(PID.TID 0000.0001)                 1.501877517761831E+09,      /* J = 23 */
(PID.TID 0000.0001)                 1.547244834049951E+09,      /* J = 24 */
(PID.TID 0000.0001)                 1.593742963439136E+09,      /* J = 25 */
(PID.TID 0000.0001)                 1.641382020566774E+09,      /* J = 26 */
(PID.TID 0000.0001)                 1.690171807481416E+09,      /* J = 27 */
(PID.TID 0000.0001)                 1.740121820832662E+09,      /* J = 28 */
(PID.TID 0000.0001)                 1.791241246411172E+09,      /* J = 29 */
(PID.TID 0000.0001)                 1.843539059771026E+09       /* J = 30 */
(PID.TID 0000.0001)     ;
(PID.TID 0000.0001) rAw =  /* rAw(:,1,:,1) ( units: m^2 ) */
(PID.TID 0000.0001)                 7.658765213139513E+08,      /* I =  1 */
(PID.TID 0000.0001)                 7.671201328724998E+08,      /* I =  2 */
(PID.TID 0000.0001)                 7.682600121490355E+08,      /* I =  3 */
(PID.TID 0000.0001)                 7.692972101823016E+08,      /* I =  4 */
(PID.TID 0000.0001)                 7.702326756407654E+08,      /* I =  5 */
(PID.TID 0000.0001)                 7.710673044850856E+08,      /* I =  6 */
(PID.TID 0000.0001)                 7.718018764844863E+08,      /* I =  7 */
(PID.TID 0000.0001)                 7.724370884091616E+08,      /* I =  8 */
(PID.TID 0000.0001)                 7.729735468223690E+08,      /* I =  9 */
(PID.TID 0000.0001)                 7.734117650170708E+08,      /* I = 10 */
(PID.TID 0000.0001)                 7.737521718456172E+08,      /* I = 11 */
(PID.TID 0000.0001)                 7.739951054308500E+08,      /* I = 12 */
(PID.TID 0000.0001)                 7.741408739107244E+08,      /* I = 13 */
(PID.TID 0000.0001)                 7.741880730050739E+08,      /* I = 14 */
(PID.TID 0000.0001)                 7.741408710636016E+08,      /* I = 15 */
(PID.TID 0000.0001)                 7.739951071427275E+08,      /* I = 16 */
(PID.TID 0000.0001)                 7.737521718095777E+08,      /* I = 17 */
(PID.TID 0000.0001)                 7.734117675938969E+08,      /* I = 18 */
(PID.TID 0000.0001)                 7.729735457051437E+08,      /* I = 19 */
(PID.TID 0000.0001)                 7.724370889497546E+08,      /* I = 20 */
(PID.TID 0000.0001)                 7.718018793856685E+08,      /* I = 21 */
(PID.TID 0000.0001)                 7.710673053320146E+08,      /* I = 22 */
(PID.TID 0000.0001)                 7.702326816053071E+08,      /* I = 23 */
(PID.TID 0000.0001)                 7.692972065242898E+08,      /* I = 24 */
(PID.TID 0000.0001)                 7.682600115363635E+08,      /* I = 25 */
(PID.TID 0000.0001)                 7.671201363863536E+08,      /* I = 26 */
(PID.TID 0000.0001)                 7.658765213499908E+08,      /* I = 27 */
(PID.TID 0000.0001)                 7.645280345158333E+08,      /* I = 28 */
(PID.TID 0000.0001)                 7.630734673343852E+08,      /* I = 29 */
(PID.TID 0000.0001)                 7.615115062009304E+08       /* I = 30 */
(PID.TID 0000.0001)     ;
(PID.TID 0000.0001) rAw =  /* rAw(1,:,1,:) ( units: m^2 ) */
(PID.TID 0000.0001)                 7.658765213139513E+08,      /* J =  1 */
(PID.TID 0000.0001)                 7.893768970448780E+08,      /* J =  2 */
(PID.TID 0000.0001)                 8.137283914516071E+08,      /* J =  3 */
(PID.TID 0000.0001)                 8.389460603348250E+08,      /* J =  4 */
(PID.TID 0000.0001)                 8.650445848102766E+08,      /* J =  5 */
(PID.TID 0000.0001)                 8.920382782103341E+08,      /* J =  6 */
(PID.TID 0000.0001)                 9.199411445401106E+08,      /* J =  7 */
(PID.TID 0000.0001)                 9.487668893433769E+08,      /* J =  8 */
(PID.TID 0000.0001)                 9.785289545527842E+08,      /* J =  9 */
(PID.TID 0000.0001)                 1.009240515336406E+09,      /* J = 10 */
(PID.TID 0000.0001)                 1.040914522930714E+09,      /* J = 11 */
(PID.TID 0000.0001)                 1.073563715488477E+09,      /* J = 12 */
(PID.TID 0000.0001)                 1.107200612276400E+09,      /* J = 13 */
(PID.TID 0000.0001)                 1.141837554111466E+09,      /* J = 14 */
(PID.TID 0000.0001)                 1.177486672294872E+09,      /* J = 15 */
(PID.TID 0000.0001)                 1.214159933192917E+09,      /* J = 16 */
(PID.TID 0000.0001)                 1.251869095602249E+09,      /* J = 17 */
(PID.TID 0000.0001)                 1.290625742284441E+09,      /* J = 18 */
(PID.TID 0000.0001)                 1.330441258846839E+09,      /* J = 19 */
(PID.TID 0000.0001)                 1.371326820624166E+09,      /* J = 20 */
(PID.TID 0000.0001)                 1.413293399742275E+09,      /* J = 21 */
(PID.TID 0000.0001)                 1.456351737475827E+09,      /* J = 22 */
(PID.TID 0000.0001)                 1.500512320083793E+09,      /* J = 23 */
(PID.TID 0000.0001)                 1.545785394792978E+09,      /* J = 24 */
(PID.TID 0000.0001)                 1.592180902277974E+09,      /* J = 25 */
(PID.TID 0000.0001)                 1.639708504465653E+09,      /* J = 26 */
(PID.TID 0000.0001)                 1.688377519501836E+09,      /* J = 27 */
(PID.TID 0000.0001)                 1.738196956421325E+09,      /* J = 28 */
(PID.TID 0000.0001)                 1.789175499722981E+09,      /* J = 29 */
(PID.TID 0000.0001)                 1.841321602441802E+09       /* J = 30 */
(PID.TID 0000.0001)     ;
(PID.TID 0000.0001) rAs =  /* rAs(:,1,:,1) ( units: m^2 ) */
(PID.TID 0000.0001)                 7.550751050606852E+08,      /* I =  1 */
(PID.TID 0000.0001)                 7.562658447772087E+08,      /* I =  2 */
(PID.TID 0000.0001)                 7.573533970032284E+08,      /* I =  3 */
(PID.TID 0000.0001)                 7.583387692957978E+08,      /* I =  4 */
(PID.TID 0000.0001)                 7.592229121974397E+08,      /* I =  5 */
(PID.TID 0000.0001)                 7.600066705467438E+08,      /* I =  6 */
(PID.TID 0000.0001)                 7.606907923080522E+08,      /* I =  7 */
(PID.TID 0000.0001)                 7.612759532224941E+08,      /* I =  8 */
(PID.TID 0000.0001)                 7.617627129118443E+08,      /* I =  9 */
(PID.TID 0000.0001)                 7.621515550445726E+08,      /* I = 10 */
(PID.TID 0000.0001)                 7.624428588466020E+08,      /* I = 11 */
(PID.TID 0000.0001)                 7.626369483673384E+08,      /* I = 12 */
(PID.TID 0000.0001)                 7.627333738515058E+08,      /* I = 13 */
(PID.TID 0000.0001)                 7.627333728604188E+08,      /* I = 14 */
(PID.TID 0000.0001)                 7.626369508901051E+08,      /* I = 15 */
(PID.TID 0000.0001)                 7.624428655319341E+08,      /* I = 16 */
(PID.TID 0000.0001)                 7.621515526659639E+08,      /* I = 17 */
(PID.TID 0000.0001)                 7.617627197953936E+08,      /* I = 18 */
(PID.TID 0000.0001)                 7.612759510961621E+08,      /* I = 19 */
(PID.TID 0000.0001)                 7.606907969030919E+08,      /* I = 20 */
(PID.TID 0000.0001)                 7.600066694295187E+08,      /* I = 21 */
(PID.TID 0000.0001)                 7.592229103594238E+08,      /* I = 22 */
(PID.TID 0000.0001)                 7.583387684488690E+08,      /* I = 23 */
(PID.TID 0000.0001)                 7.573533915792797E+08,      /* I = 24 */
(PID.TID 0000.0001)                 7.562658465071062E+08,      /* I = 25 */
(PID.TID 0000.0001)                 7.550751079979067E+08,      /* I = 26 */
(PID.TID 0000.0001)                 7.537800585200102E+08,      /* I = 27 */
(PID.TID 0000.0001)                 7.523795064624999E+08,      /* I = 28 */
(PID.TID 0000.0001)                 7.508721675027735E+08,      /* I = 29 */
(PID.TID 0000.0001)                 7.492566800675046E+08       /* I = 30 */
(PID.TID 0000.0001)     ;
(PID.TID 0000.0001) rAs =  /* rAs(1,:,1,:) ( units: m^2 ) */
(PID.TID 0000.0001)                 7.550751050606852E+08,      /* J =  1 */
(PID.TID 0000.0001)                 7.781568160584769E+08,      /* J =  2 */
(PID.TID 0000.0001)                 8.020831616625657E+08,      /* J =  3 */
(PID.TID 0000.0001)                 8.268695937660589E+08,      /* J =  4 */
(PID.TID 0000.0001)                 8.525311818286231E+08,      /* J =  5 */
(PID.TID 0000.0001)                 8.790826547724357E+08,      /* J =  6 */
(PID.TID 0000.0001)                 9.065383887828039E+08,      /* J =  7 */
(PID.TID 0000.0001)                 9.349124897125442E+08,      /* J =  8 */
(PID.TID 0000.0001)                 9.642187819277472E+08,      /* J =  9 */
(PID.TID 0000.0001)                 9.944708240750725E+08,      /* J = 10 */
(PID.TID 0000.0001)                 1.025681954725808E+09,      /* J = 11 */
(PID.TID 0000.0001)                 1.057865313008499E+09,      /* J = 12 */
(PID.TID 0000.0001)                 1.091033805921100E+09,      /* J = 13 */
(PID.TID 0000.0001)                 1.125200178247652E+09,      /* J = 14 */
(PID.TID 0000.0001)                 1.160376979600140E+09,      /* J = 15 */
(PID.TID 0000.0001)                 1.196576586510721E+09,      /* J = 16 */
(PID.TID 0000.0001)                 1.233811208089928E+09,      /* J = 17 */
(PID.TID 0000.0001)                 1.272092866313053E+09,      /* J = 18 */
(PID.TID 0000.0001)                 1.311433405822894E+09,      /* J = 19 */
(PID.TID 0000.0001)                 1.351844507714875E+09,      /* J = 20 */
(PID.TID 0000.0001)                 1.393337606051485E+09,      /* J = 21 */
(PID.TID 0000.0001)                 1.435923987908001E+09,      /* J = 22 */
(PID.TID 0000.0001)                 1.479614675036705E+09,      /* J = 23 */
(PID.TID 0000.0001)                 1.524420466465598E+09,      /* J = 24 */
(PID.TID 0000.0001)                 1.570351910729954E+09,      /* J = 25 */
(PID.TID 0000.0001)                 1.617419255741331E+09,      /* J = 26 */
(PID.TID 0000.0001)                 1.665632470339211E+09,      /* J = 27 */
(PID.TID 0000.0001)                 1.715001205152071E+09,      /* J = 28 */
(PID.TID 0000.0001)                 1.765534790867491E+09,      /* J = 29 */
(PID.TID 0000.0001)                 1.817242347954489E+09       /* J = 30 */
(PID.TID 0000.0001)     ;
(PID.TID 0000.0001) globalArea = /* Integrated horizontal Area (m^2) */
(PID.TID 0000.0001)                 3.580138611494435E+14
(PID.TID 0000.0001)     ;
(PID.TID 0000.0001) hasWetCSCorners = /* Domain contains CS corners (True/False) */
(PID.TID 0000.0001)                   F
(PID.TID 0000.0001)     ;
(PID.TID 0000.0001) // =======================================================
(PID.TID 0000.0001) // End of Model config. summary
(PID.TID 0000.0001) // =======================================================
(PID.TID 0000.0001) 
(PID.TID 0000.0001) == Packages configuration : Check & print summary ==
(PID.TID 0000.0001) 
(PID.TID 0000.0001) GGL90_CHECK: #define ALLOW_GGL90
(PID.TID 0000.0001) GGL90_CHECK: Some form of convection has been enabled
(PID.TID 0000.0001) GMREDI_CHECK: #define GMREDI
(PID.TID 0000.0001) GM_AdvForm =     /* if FALSE => use SkewFlux Form */
(PID.TID 0000.0001)                   T
(PID.TID 0000.0001)     ;
(PID.TID 0000.0001) GM_InMomAsStress = /* if TRUE => apply as Eddy Stress */
(PID.TID 0000.0001)                   F
(PID.TID 0000.0001)     ;
(PID.TID 0000.0001) GM_AdvSeparate = /* Calc Bolus & Euler Adv. separately */
(PID.TID 0000.0001)                   F
(PID.TID 0000.0001)     ;
(PID.TID 0000.0001) GM_ExtraDiag =   /* Tensor Extra Diag (line 1&2) non 0 */
(PID.TID 0000.0001)                   T
(PID.TID 0000.0001)     ;
(PID.TID 0000.0001) GM_isopycK =    /* Background Isopyc. Diffusivity [m^2/s] */
(PID.TID 0000.0001)                 1.000000000000000E+03
(PID.TID 0000.0001)     ;
(PID.TID 0000.0001) GM_skewflx*K =  /* Background GM_SkewFlx Diffusivity [m^2/s] */
(PID.TID 0000.0001)                 0.000000000000000E+00
(PID.TID 0000.0001)     ;
(PID.TID 0000.0001) GM_advec*K =    /* Backg. GM-Advec(=Bolus) Diffusivity [m^2/s]*/
(PID.TID 0000.0001)                 1.000000000000000E+03
(PID.TID 0000.0001)     ;
(PID.TID 0000.0001) GM_Kmin_horiz = /* Minimum Horizontal Diffusivity [m^2/s] */
(PID.TID 0000.0001)                 1.000000000000000E+02
(PID.TID 0000.0001)     ;
(PID.TID 0000.0001) GM_Visbeck_alpha = /* Visbeck alpha coeff. [-] */
(PID.TID 0000.0001)                 0.000000000000000E+00
(PID.TID 0000.0001)     ;
(PID.TID 0000.0001) GM_Small_Number =  /* epsilon used in slope calc */
(PID.TID 0000.0001)                 9.999999999999999E-21
(PID.TID 0000.0001)     ;
(PID.TID 0000.0001) GM_slopeSqCutoff = /* Slope^2 cut-off value */
(PID.TID 0000.0001)                 1.000000000000000E+08
(PID.TID 0000.0001)     ;
(PID.TID 0000.0001) GM_taper_scheme =  /* Type of Tapering/Clipping scheme */
(PID.TID 0000.0001)               'stableGmAdjTap                          '
(PID.TID 0000.0001)     ;
(PID.TID 0000.0001) GM_maxSlope =  /* Maximum Slope (Tapering/Clipping) */
(PID.TID 0000.0001)                 4.000000000000000E-03
(PID.TID 0000.0001)     ;
(PID.TID 0000.0001) GM_facTrL2dz = /* Minimum Trans.Layer Thick. (factor of dz) */
(PID.TID 0000.0001)                 1.000000000000000E+00
(PID.TID 0000.0001)     ;
(PID.TID 0000.0001) GM_facTrL2ML = /* Max.Trans.Layer Thick. (factor of MxL Depth)*/
(PID.TID 0000.0001)                 5.000000000000000E+00
(PID.TID 0000.0001)     ;
(PID.TID 0000.0001) GM_maxTransLay = /* Maximum Transition Layer Thickness [m] */
(PID.TID 0000.0001)                 5.000000000000000E+02
(PID.TID 0000.0001)     ;
(PID.TID 0000.0001) GM_UseBVP = /* if TRUE => use bvp a la Ferrari et al. (2010) */
(PID.TID 0000.0001)                   F
(PID.TID 0000.0001)     ;
(PID.TID 0000.0001) GM_BVP_ModeNumber = /* Vertical mode number for BVP wave speed */
(PID.TID 0000.0001)                       1
(PID.TID 0000.0001)     ;
(PID.TID 0000.0001) GM_BVP_cMin = /* Minimum wave speed for BVP [m/s] */
(PID.TID 0000.0001)                 1.000000000000000E-01
(PID.TID 0000.0001)     ;
(PID.TID 0000.0001) GM_useSubMeso = /* if TRUE => use Sub-Meso param. (B.Fox-Kemper) */
(PID.TID 0000.0001)                   F
(PID.TID 0000.0001)     ;
(PID.TID 0000.0001) subMeso_Ceff = /* efficiency coeff. of Mixed-Layer Eddies [-] */
(PID.TID 0000.0001)                 7.000000000000001E-02
(PID.TID 0000.0001)     ;
(PID.TID 0000.0001) subMeso_invTau = /* inverse of Sub-Meso mixing time-scale [/s] */
(PID.TID 0000.0001)                 2.000000000000000E-06
(PID.TID 0000.0001)     ;
(PID.TID 0000.0001) subMeso_LfMin = /* minimum length-scale "Lf" [m] */
(PID.TID 0000.0001)                 1.000000000000000E+03
(PID.TID 0000.0001)     ;
(PID.TID 0000.0001) subMeso_Lmax = /* maximum grid-scale length [m] */
(PID.TID 0000.0001)                 1.100000000000000E+05
(PID.TID 0000.0001)     ;
(PID.TID 0000.0001) SALT_PLUME_CHECK: #define SALT_PLUME
(PID.TID 0000.0001) GAD_CHECK: #define ALLOW_GENERIC_ADVDIFF
(PID.TID 0000.0001) // =======================================================
(PID.TID 0000.0001) // Check Model config. (CONFIG_CHECK):
(PID.TID 0000.0001) // CONFIG_CHECK : Normal End
(PID.TID 0000.0001) // =======================================================
(PID.TID 0000.0001) 
(PID.TID 0000.0001)  nRecords = 403 ; filePrec =  64 ; fileIter =     26280
(PID.TID 0000.0001)     nDims =   2 , dims:
(PID.TID 0000.0001)    1:  90   1  90
(PID.TID 0000.0001)    2:1170   11170
(PID.TID 0000.0001)     nFlds =  11 , nFl3D =   8 , fields:
(PID.TID 0000.0001)  >Uvel    < >Vvel    < >Theta   < >Salt    < >GuNm1   < >GuNm2   < >GvNm1   < >GvNm2   < >EtaN    < >dEtaHdt < >EtaH    <
(PID.TID 0000.0001) missingVal=  1.00000000000000E+00 ; nTimRec =   1 , timeList:
(PID.TID 0000.0001)   9.460800000000E+07
(PID.TID 0000.0001) READ_MFLDS_3D_RL: read field: "Uvel    ", #   1 in fldList, rec=   1
(PID.TID 0000.0001) READ_MFLDS_3D_RL: read field: "Vvel    ", #   2 in fldList, rec=   2
(PID.TID 0000.0001) READ_MFLDS_3D_RL: read field: "Theta   ", #   3 in fldList, rec=   3
(PID.TID 0000.0001) READ_MFLDS_3D_RL: read field: "Salt    ", #   4 in fldList, rec=   4
(PID.TID 0000.0001) READ_MFLDS_3D_RL: read field: "GuNm1   ", #   5 in fldList, rec=   5
(PID.TID 0000.0001) READ_MFLDS_3D_RL: read field: "GvNm1   ", #   7 in fldList, rec=   7
(PID.TID 0000.0001) READ_MFLDS_3D_RL: read field: "EtaN    ", #   9 in fldList, rec= 401
(PID.TID 0000.0001) READ_MFLDS_3D_RL: read field: "dEtaHdt ", #  10 in fldList, rec= 402
(PID.TID 0000.0001) READ_MFLDS_3D_RL: read field: "EtaH    ", #  11 in fldList, rec= 403
(PID.TID 0000.0001) READ_MFLDS_CHECK: - normal end ; reset MFLDS file-name: pickup.0000000001
(PID.TID 0000.0001) // =======================================================
(PID.TID 0000.0001) // Model current state
(PID.TID 0000.0001) // =======================================================
(PID.TID 0000.0001) 
(PID.TID 0000.0001) SOLVE_FOR_PRESSURE: putPmEinXvector =    F
 cg2d: Sum(rhs),rhsMax =   4.78207229081045E+01  3.22151811031722E-01
 cg2d: Sum(rhs),rhsMax =   4.73467072998895E+01  3.19422363783744E-01
 cg2d: Sum(rhs),rhsMax =   4.78474762911251E+01  3.25301394258781E-01
 cg2d: Sum(rhs),rhsMax =   4.86833360923798E+01  3.24699426728821E-01
 cg2d: Sum(rhs),rhsMax =   4.96063945257250E+01  3.19250080406606E-01
 cg2d: Sum(rhs),rhsMax =   5.05779456377677E+01  3.12600840388749E-01
 cg2d: Sum(rhs),rhsMax =   5.16049838540392E+01  3.09974924881480E-01
(PID.TID 0000.0001)      cg2d_init_res =   1.14691207971813E+00
(PID.TID 0000.0001)      cg2d_iters(min,last) =      -1      37
(PID.TID 0000.0001)      cg2d_last_res =   2.42583641455958E-05
(PID.TID 0000.0001) // =======================================================
(PID.TID 0000.0001) // Begin MONITOR dynamic field statistics
(PID.TID 0000.0001) // =======================================================
(PID.TID 0000.0001) %MON time_tsnumber                =                     8
(PID.TID 0000.0001) %MON time_secondsf                =   7.2000000000000E+03
(PID.TID 0000.0001) %MON dynstat_eta_max              =   1.1508454118926E+00
(PID.TID 0000.0001) %MON dynstat_eta_min              =  -4.5783019135212E+00
(PID.TID 0000.0001) %MON dynstat_eta_mean             =  -1.6324304546860E-03
(PID.TID 0000.0001) %MON dynstat_eta_sd               =   7.3543877916180E-01
(PID.TID 0000.0001) %MON dynstat_eta_del2             =   1.2247070378404E-04
(PID.TID 0000.0001) %MON dynstat_uvel_max             =   9.0886869129558E-01
(PID.TID 0000.0001) %MON dynstat_uvel_min             =  -1.1770496810271E+00
(PID.TID 0000.0001) %MON dynstat_uvel_mean            =   1.8238250744713E-03
(PID.TID 0000.0001) %MON dynstat_uvel_sd              =   2.1827273439657E-02
(PID.TID 0000.0001) %MON dynstat_uvel_del2            =   1.7393870107453E-05
(PID.TID 0000.0001) %MON dynstat_vvel_max             =   8.4203709881983E-01
(PID.TID 0000.0001) %MON dynstat_vvel_min             =  -9.5308434231993E-01
(PID.TID 0000.0001) %MON dynstat_vvel_mean            =   1.2410361814297E-03
(PID.TID 0000.0001) %MON dynstat_vvel_sd              =   2.3833645815932E-02
(PID.TID 0000.0001) %MON dynstat_vvel_del2            =   1.8680336756370E-05
(PID.TID 0000.0001) %MON dynstat_wvel_max             =   1.8621054778475E-03
(PID.TID 0000.0001) %MON dynstat_wvel_min             =  -1.4985540908876E-03
(PID.TID 0000.0001) %MON dynstat_wvel_mean            =   8.8184871539978E-08
(PID.TID 0000.0001) %MON dynstat_wvel_sd              =   3.3460401233738E-05
(PID.TID 0000.0001) %MON dynstat_wvel_del2            =   4.3255138983799E-08
(PID.TID 0000.0001) %MON dynstat_theta_max            =   3.2663785719576E+01
(PID.TID 0000.0001) %MON dynstat_theta_min            =  -2.0421547205172E+00
(PID.TID 0000.0001) %MON dynstat_theta_mean           =   3.5905964336908E+00
(PID.TID 0000.0001) %MON dynstat_theta_sd             =   4.4366360265142E+00
(PID.TID 0000.0001) %MON dynstat_theta_del2           =   1.0939543472438E-04
(PID.TID 0000.0001) %MON dynstat_salt_max             =   4.0711526594659E+01
(PID.TID 0000.0001) %MON dynstat_salt_min             =   1.8881798111379E+01
(PID.TID 0000.0001) %MON dynstat_salt_mean            =   3.4725775866819E+01
(PID.TID 0000.0001) %MON dynstat_salt_sd              =   3.7776675893243E-01
(PID.TID 0000.0001) %MON dynstat_salt_del2            =   2.6852461605390E-05
(PID.TID 0000.0001) %MON dynstat_sst_max              =   3.2663785719576E+01
(PID.TID 0000.0001) %MON dynstat_sst_min              =  -1.9582348902565E+00
(PID.TID 0000.0001) %MON dynstat_sst_mean             =   1.8504845839116E+01
(PID.TID 0000.0001) %MON dynstat_sst_sd               =   1.0094298449311E+01
(PID.TID 0000.0001) %MON dynstat_sst_del2             =   8.8347010762929E-04
(PID.TID 0000.0001) %MON dynstat_sss_max              =   3.9666864237734E+01
(PID.TID 0000.0001) %MON dynstat_sss_min              =   1.8881798111379E+01
(PID.TID 0000.0001) %MON dynstat_sss_mean             =   3.4713602450050E+01
(PID.TID 0000.0001) %MON dynstat_sss_sd               =   1.1592032428338E+00
(PID.TID 0000.0001) %MON dynstat_sss_del2             =   3.7520594253922E-04
(PID.TID 0000.0001) %MON forcing_qnet_max             =   1.0405178402615E+03
(PID.TID 0000.0001) %MON forcing_qnet_min             =  -1.3199994736758E+03
(PID.TID 0000.0001) %MON forcing_qnet_mean            =  -5.3217559054384E+01
(PID.TID 0000.0001) %MON forcing_qnet_sd              =   2.3489355567604E+02
(PID.TID 0000.0001) %MON forcing_qnet_del2            =   7.0627509380563E-01
(PID.TID 0000.0001) %MON forcing_qsw_max              =   0.0000000000000E+00
(PID.TID 0000.0001) %MON forcing_qsw_min              =  -4.4034338298002E+02
(PID.TID 0000.0001) %MON forcing_qsw_mean             =  -9.0120139648007E+01
(PID.TID 0000.0001) %MON forcing_qsw_sd               =   1.2229115519737E+02
(PID.TID 0000.0001) %MON forcing_qsw_del2             =   2.0257282981977E-01
(PID.TID 0000.0001) %MON forcing_empmr_max            =   3.3859591931105E-03
(PID.TID 0000.0001) %MON forcing_empmr_min            =  -8.4225907921791E-02
(PID.TID 0000.0001) %MON forcing_empmr_mean           =   3.7145183768715E-05
(PID.TID 0000.0001) %MON forcing_empmr_sd             =   5.2748583169362E-04
(PID.TID 0000.0001) %MON forcing_empmr_del2           =   2.6642014687234E-06
(PID.TID 0000.0001) %MON forcing_fu_max               =   1.3558528423309E+00
(PID.TID 0000.0001) %MON forcing_fu_min               =  -1.3334978222847E+00
(PID.TID 0000.0001) %MON forcing_fu_mean              =   1.3339137304520E-02
(PID.TID 0000.0001) %MON forcing_fu_sd                =   1.1899632807826E-01
(PID.TID 0000.0001) %MON forcing_fu_del2              =   1.7460952771033E-04
(PID.TID 0000.0001) %MON forcing_fv_max               =   8.9339271187782E-01
(PID.TID 0000.0001) %MON forcing_fv_min               =  -8.2369142770767E-01
(PID.TID 0000.0001) %MON forcing_fv_mean              =  -5.4214562251775E-03
(PID.TID 0000.0001) %MON forcing_fv_sd                =   1.1528610130030E-01
(PID.TID 0000.0001) %MON forcing_fv_del2              =   1.3906771139729E-04
(PID.TID 0000.0001) %MON trAdv_CFL_u_max              =   2.4691626010157E-02
(PID.TID 0000.0001) %MON trAdv_CFL_v_max              =   2.3669735547499E-02
(PID.TID 0000.0001) %MON trAdv_CFL_w_max              =   8.1422152343741E-02
(PID.TID 0000.0001) %MON advcfl_uvel_max              =   2.3226760747095E-02
(PID.TID 0000.0001) %MON advcfl_vvel_max              =   2.1455552262830E-02
(PID.TID 0000.0001) %MON advcfl_wvel_max              =   8.1861441298343E-02
(PID.TID 0000.0001) %MON advcfl_W_hf_max              =   8.2189342227164E-02
(PID.TID 0000.0001) %MON pe_b_mean                    =   7.1146519071060E-04
(PID.TID 0000.0001) %MON ke_max                       =   6.9168186279965E-01
(PID.TID 0000.0001) %MON ke_mean                      =   5.0598777531244E-04
(PID.TID 0000.0001) %MON ke_vol                       =   1.3349973041379E+18
(PID.TID 0000.0001) %MON vort_r_min                   =  -4.8636158296902E-05
(PID.TID 0000.0001) %MON vort_r_max                   =   3.4377790377740E-05
(PID.TID 0000.0001) %MON vort_a_mean                  =  -1.9727864647440E-05
(PID.TID 0000.0001) %MON vort_a_sd                    =   7.4543398747568E-05
(PID.TID 0000.0001) %MON vort_p_mean                  =  -2.1760537926065E-05
(PID.TID 0000.0001) %MON vort_p_sd                    =   9.7241261387355E-05
(PID.TID 0000.0001) %MON surfExpan_theta_mean         =  -2.2647366324381E-06
(PID.TID 0000.0001) %MON surfExpan_salt_mean          =  -2.8698003295524E-07
(PID.TID 0000.0001) // =======================================================
(PID.TID 0000.0001) // End MONITOR dynamic field statistics
(PID.TID 0000.0001) // =======================================================
 cg2d: Sum(rhs),rhsMax =   5.26669436691893E+01  3.07422673214070E-01
 cg2d: Sum(rhs),rhsMax =   5.37595467850871E+01  3.04501155673662E-01
 cg2d: Sum(rhs),rhsMax =   5.48646065544391E+01  3.01532044635048E-01
 cg2d: Sum(rhs),rhsMax =   5.59702632309114E+01  2.98777728960543E-01
 cg2d: Sum(rhs),rhsMax =   5.70576249357382E+01  2.96397391816197E-01
 cg2d: Sum(rhs),rhsMax =   5.81271669710030E+01  2.94453787789453E-01
 cg2d: Sum(rhs),rhsMax =   5.91697696480253E+01  2.92941391116292E-01
 cg2d: Sum(rhs),rhsMax =   6.01840833323451E+01  2.91807192574296E-01
(PID.TID 0000.0001)      cg2d_init_res =   8.08335080251457E-01
(PID.TID 0000.0001)      cg2d_iters(min,last) =      -1      34
(PID.TID 0000.0001)      cg2d_last_res =   2.46494862367308E-05
(PID.TID 0000.0001) // =======================================================
(PID.TID 0000.0001) // Begin MONITOR dynamic field statistics
(PID.TID 0000.0001) // =======================================================
(PID.TID 0000.0001) %MON time_tsnumber                =                    16
(PID.TID 0000.0001) %MON time_secondsf                =   1.4400000000000E+04
(PID.TID 0000.0001) %MON dynstat_eta_max              =   1.1779353808064E+00
(PID.TID 0000.0001) %MON dynstat_eta_min              =  -4.2610760848086E+00
(PID.TID 0000.0001) %MON dynstat_eta_mean             =  -1.9038147710107E-03
(PID.TID 0000.0001) %MON dynstat_eta_sd               =   7.2616744386534E-01
(PID.TID 0000.0001) %MON dynstat_eta_del2             =   1.0813062746700E-04
(PID.TID 0000.0001) %MON dynstat_uvel_max             =   9.2406662258949E-01
(PID.TID 0000.0001) %MON dynstat_uvel_min             =  -1.3321872899188E+00
(PID.TID 0000.0001) %MON dynstat_uvel_mean            =   1.9655852645875E-03
(PID.TID 0000.0001) %MON dynstat_uvel_sd              =   2.1938473939817E-02
(PID.TID 0000.0001) %MON dynstat_uvel_del2            =   1.5522347867081E-05
(PID.TID 0000.0001) %MON dynstat_vvel_max             =   1.1307478858103E+00
(PID.TID 0000.0001) %MON dynstat_vvel_min             =  -1.1245241382596E+00
(PID.TID 0000.0001) %MON dynstat_vvel_mean            =   1.2016535462431E-03
(PID.TID 0000.0001) %MON dynstat_vvel_sd              =   2.3726161822453E-02
(PID.TID 0000.0001) %MON dynstat_vvel_del2            =   1.6828916583398E-05
(PID.TID 0000.0001) %MON dynstat_wvel_max             =   2.3574074726854E-03
(PID.TID 0000.0001) %MON dynstat_wvel_min             =  -2.6542154313701E-03
(PID.TID 0000.0001) %MON dynstat_wvel_mean            =  -1.3062184125816E-08
(PID.TID 0000.0001) %MON dynstat_wvel_sd              =   3.2115095140111E-05
(PID.TID 0000.0001) %MON dynstat_wvel_del2            =   4.0225250036032E-08
(PID.TID 0000.0001) %MON dynstat_theta_max            =   3.2661599490633E+01
(PID.TID 0000.0001) %MON dynstat_theta_min            =  -2.0421682675252E+00
(PID.TID 0000.0001) %MON dynstat_theta_mean           =   3.5906192533251E+00
(PID.TID 0000.0001) %MON dynstat_theta_sd             =   4.4367068796169E+00
(PID.TID 0000.0001) %MON dynstat_theta_del2           =   1.0904861072467E-04
(PID.TID 0000.0001) %MON dynstat_salt_max             =   4.0711523223701E+01
(PID.TID 0000.0001) %MON dynstat_salt_min             =   1.8863782284925E+01
(PID.TID 0000.0001) %MON dynstat_salt_mean            =   3.4725725205239E+01
(PID.TID 0000.0001) %MON dynstat_salt_sd              =   3.7757970597611E-01
(PID.TID 0000.0001) %MON dynstat_salt_del2            =   2.6742194176957E-05
(PID.TID 0000.0001) %MON dynstat_sst_max              =   3.2661599490633E+01
(PID.TID 0000.0001) %MON dynstat_sst_min              =  -1.9565957874421E+00
(PID.TID 0000.0001) %MON dynstat_sst_mean             =   1.8505985697485E+01
(PID.TID 0000.0001) %MON dynstat_sst_sd               =   1.0098147181629E+01
(PID.TID 0000.0001) %MON dynstat_sst_del2             =   8.8043359239252E-04
(PID.TID 0000.0001) %MON dynstat_sss_max              =   3.9618600193444E+01
(PID.TID 0000.0001) %MON dynstat_sss_min              =   1.8863782284925E+01
(PID.TID 0000.0001) %MON dynstat_sss_mean             =   3.4697769387520E+01
(PID.TID 0000.0001) %MON dynstat_sss_sd               =   1.1425239819969E+00
(PID.TID 0000.0001) %MON dynstat_sss_del2             =   3.7937949766686E-04
(PID.TID 0000.0001) %MON forcing_qnet_max             =   1.0404969881275E+03
(PID.TID 0000.0001) %MON forcing_qnet_min             =  -1.2939845797682E+03
(PID.TID 0000.0001) %MON forcing_qnet_mean            =  -4.0128165629159E+01
(PID.TID 0000.0001) %MON forcing_qnet_sd              =   2.3788244058265E+02
(PID.TID 0000.0001) %MON forcing_qnet_del2            =   6.5214943895214E-01
(PID.TID 0000.0001) %MON forcing_qsw_max              =   0.0000000000000E+00
(PID.TID 0000.0001) %MON forcing_qsw_min              =  -4.4427213561789E+02
(PID.TID 0000.0001) %MON forcing_qsw_mean             =  -8.6230141326992E+01
(PID.TID 0000.0001) %MON forcing_qsw_sd               =   1.2112279561092E+02
(PID.TID 0000.0001) %MON forcing_qsw_del2             =   1.9745403031319E-01
(PID.TID 0000.0001) %MON forcing_empmr_max            =   3.2988823950291E-03
(PID.TID 0000.0001) %MON forcing_empmr_min            =  -6.3526615500450E-02
(PID.TID 0000.0001) %MON forcing_empmr_mean           =   3.6684971996537E-05
(PID.TID 0000.0001) %MON forcing_empmr_sd             =   4.3939675381292E-04
(PID.TID 0000.0001) %MON forcing_empmr_del2           =   2.2116468812958E-06
(PID.TID 0000.0001) %MON forcing_fu_max               =   1.2581380009651E+00
(PID.TID 0000.0001) %MON forcing_fu_min               =  -1.2164088487625E+00
(PID.TID 0000.0001) %MON forcing_fu_mean              =   1.3060949848816E-02
(PID.TID 0000.0001) %MON forcing_fu_sd                =   1.1579578065587E-01
(PID.TID 0000.0001) %MON forcing_fu_del2              =   1.6711483858952E-04
(PID.TID 0000.0001) %MON forcing_fv_max               =   7.8688734769821E-01
(PID.TID 0000.0001) %MON forcing_fv_min               =  -7.5571420788765E-01
(PID.TID 0000.0001) %MON forcing_fv_mean              =  -4.8548953171107E-03
(PID.TID 0000.0001) %MON forcing_fv_sd                =   1.1032069145516E-01
(PID.TID 0000.0001) %MON forcing_fv_del2              =   1.3318739423263E-04
(PID.TID 0000.0001) %MON trAdv_CFL_u_max              =   2.6647955763116E-02
(PID.TID 0000.0001) %MON trAdv_CFL_v_max              =   2.2639750831794E-02
(PID.TID 0000.0001) %MON trAdv_CFL_w_max              =   6.4830093798113E-02
(PID.TID 0000.0001) %MON advcfl_uvel_max              =   2.5058503733927E-02
(PID.TID 0000.0001) %MON advcfl_vvel_max              =   2.4643294048855E-02
(PID.TID 0000.0001) %MON advcfl_wvel_max              =   6.5335987013372E-02
(PID.TID 0000.0001) %MON advcfl_W_hf_max              =   6.5597278823069E-02
(PID.TID 0000.0001) %MON pe_b_mean                    =   6.9364143809044E-04
(PID.TID 0000.0001) %MON ke_max                       =   8.1720263277804E-01
(PID.TID 0000.0001) %MON ke_mean                      =   5.0608132809359E-04
(PID.TID 0000.0001) %MON ke_vol                       =   1.3349972068344E+18
(PID.TID 0000.0001) %MON vort_r_min                   =  -5.4797943972302E-05
(PID.TID 0000.0001) %MON vort_r_max                   =   4.4671522925425E-05
(PID.TID 0000.0001) %MON vort_a_mean                  =  -1.9727864647440E-05
(PID.TID 0000.0001) %MON vort_a_sd                    =   7.4543383182831E-05
(PID.TID 0000.0001) %MON vort_p_mean                  =  -2.1760540153516E-05
(PID.TID 0000.0001) %MON vort_p_sd                    =   9.7242547620142E-05
(PID.TID 0000.0001) %MON surfExpan_theta_mean         =  -2.6423184151427E-06
(PID.TID 0000.0001) %MON surfExpan_salt_mean          =  -3.3567244485717E-07
(PID.TID 0000.0001) // =======================================================
(PID.TID 0000.0001) // End MONITOR dynamic field statistics
(PID.TID 0000.0001) // =======================================================
 cg2d: Sum(rhs),rhsMax =   6.11647128183625E+01  2.90967551537732E-01
 cg2d: Sum(rhs),rhsMax =   6.21177820202021E+01  2.90331760417318E-01
 cg2d: Sum(rhs),rhsMax =   6.30403004986838E+01  2.89822542743582E-01
 cg2d: Sum(rhs),rhsMax =   6.39329538545866E+01  2.89401213557937E-01
 cg2d: Sum(rhs),rhsMax =   6.47928775162470E+01  2.89076811646496E-01
 cg2d: Sum(rhs),rhsMax =   6.56210504678759E+01  2.88901676766221E-01
 cg2d: Sum(rhs),rhsMax =   6.64140356827992E+01  2.88950985952852E-01
 cg2d: Sum(rhs),rhsMax =   6.71717959332524E+01  2.89299560395601E-01
(PID.TID 0000.0001)      cg2d_init_res =   6.18847292033076E-01
(PID.TID 0000.0001)      cg2d_iters(min,last) =      -1      34
(PID.TID 0000.0001)      cg2d_last_res =   2.47848827381661E-05
(PID.TID 0000.0001) // =======================================================
(PID.TID 0000.0001) // Begin MONITOR dynamic field statistics
(PID.TID 0000.0001) // =======================================================
(PID.TID 0000.0001) %MON time_tsnumber                =                    24
(PID.TID 0000.0001) %MON time_secondsf                =   2.1600000000000E+04
(PID.TID 0000.0001) %MON dynstat_eta_max              =   1.1368065207735E+00
(PID.TID 0000.0001) %MON dynstat_eta_min              =  -3.9984326914967E+00
(PID.TID 0000.0001) %MON dynstat_eta_mean             =  -2.1248584378505E-03
(PID.TID 0000.0001) %MON dynstat_eta_sd               =   7.2104911690224E-01
(PID.TID 0000.0001) %MON dynstat_eta_del2             =   9.8663692459276E-05
(PID.TID 0000.0001) %MON dynstat_uvel_max             =   9.0686101626862E-01
(PID.TID 0000.0001) %MON dynstat_uvel_min             =  -1.4363073362586E+00
(PID.TID 0000.0001) %MON dynstat_uvel_mean            =   1.9063629526094E-03
(PID.TID 0000.0001) %MON dynstat_uvel_sd              =   2.2005876244414E-02
(PID.TID 0000.0001) %MON dynstat_uvel_del2            =   1.4439646173307E-05
(PID.TID 0000.0001) %MON dynstat_vvel_max             =   1.1716041894583E+00
(PID.TID 0000.0001) %MON dynstat_vvel_min             =  -1.0684055631129E+00
(PID.TID 0000.0001) %MON dynstat_vvel_mean            =   1.2903178307265E-03
(PID.TID 0000.0001) %MON dynstat_vvel_sd              =   2.3596718531349E-02
(PID.TID 0000.0001) %MON dynstat_vvel_del2            =   1.5568219087310E-05
(PID.TID 0000.0001) %MON dynstat_wvel_max             =   2.4531715172237E-03
(PID.TID 0000.0001) %MON dynstat_wvel_min             =  -3.6375728675560E-03
(PID.TID 0000.0001) %MON dynstat_wvel_mean            =   3.9549506854960E-08
(PID.TID 0000.0001) %MON dynstat_wvel_sd              =   3.3716172944067E-05
(PID.TID 0000.0001) %MON dynstat_wvel_del2            =   4.5353571650275E-08
(PID.TID 0000.0001) %MON dynstat_theta_max            =   3.2660371562098E+01
(PID.TID 0000.0001) %MON dynstat_theta_min            =  -2.0421949619879E+00
(PID.TID 0000.0001) %MON dynstat_theta_mean           =   3.5906309197970E+00
(PID.TID 0000.0001) %MON dynstat_theta_sd             =   4.4367439840710E+00
(PID.TID 0000.0001) %MON dynstat_theta_del2           =   1.0862095842797E-04
(PID.TID 0000.0001) %MON dynstat_salt_max             =   4.0711521922250E+01
(PID.TID 0000.0001) %MON dynstat_salt_min             =   1.8855950833607E+01
(PID.TID 0000.0001) %MON dynstat_salt_mean            =   3.4725693913084E+01
(PID.TID 0000.0001) %MON dynstat_salt_sd              =   3.7745095297488E-01
(PID.TID 0000.0001) %MON dynstat_salt_del2            =   2.6609137725829E-05
(PID.TID 0000.0001) %MON dynstat_sst_max              =   3.2660371562098E+01
(PID.TID 0000.0001) %MON dynstat_sst_min              =  -1.9548489931287E+00
(PID.TID 0000.0001) %MON dynstat_sst_mean             =   1.8504276018741E+01
(PID.TID 0000.0001) %MON dynstat_sst_sd               =   1.0102039088465E+01
(PID.TID 0000.0001) %MON dynstat_sst_del2             =   8.7862317426110E-04
(PID.TID 0000.0001) %MON dynstat_sss_max              =   3.9575765432305E+01
(PID.TID 0000.0001) %MON dynstat_sss_min              =   1.8855950833607E+01
(PID.TID 0000.0001) %MON dynstat_sss_mean             =   3.4689800951879E+01
(PID.TID 0000.0001) %MON dynstat_sss_sd               =   1.1330739437369E+00
(PID.TID 0000.0001) %MON dynstat_sss_del2             =   3.8289540428883E-04
(PID.TID 0000.0001) %MON forcing_qnet_max             =   1.4404233398438E+03
(PID.TID 0000.0001) %MON forcing_qnet_min             =  -1.2850484721345E+03
(PID.TID 0000.0001) %MON forcing_qnet_mean            =  -1.1441293164241E+01
(PID.TID 0000.0001) %MON forcing_qnet_sd              =   2.2255479297664E+02
(PID.TID 0000.0001) %MON forcing_qnet_del2            =   6.3772660322365E-01
(PID.TID 0000.0001) %MON forcing_qsw_max              =   0.0000000000000E+00
(PID.TID 0000.0001) %MON forcing_qsw_min              =  -4.5256749186297E+02
(PID.TID 0000.0001) %MON forcing_qsw_mean             =  -7.5183957453870E+01
(PID.TID 0000.0001) %MON forcing_qsw_sd               =   1.0985501488951E+02
(PID.TID 0000.0001) %MON forcing_qsw_del2             =   1.8561665572634E-01
(PID.TID 0000.0001) %MON forcing_empmr_max            =   3.3455404918641E-03
(PID.TID 0000.0001) %MON forcing_empmr_min            =  -6.4518995583057E-02
(PID.TID 0000.0001) %MON forcing_empmr_mean           =   2.7406130862510E-05
(PID.TID 0000.0001) %MON forcing_empmr_sd             =   3.8452212049345E-04
(PID.TID 0000.0001) %MON forcing_empmr_del2           =   2.1589075550310E-06
(PID.TID 0000.0001) %MON forcing_fu_max               =   1.1375699043274E+00
(PID.TID 0000.0001) %MON forcing_fu_min               =  -1.0549526214600E+00
(PID.TID 0000.0001) %MON forcing_fu_mean              =   1.2991136193252E-02
(PID.TID 0000.0001) %MON forcing_fu_sd                =   1.1171977059622E-01
(PID.TID 0000.0001) %MON forcing_fu_del2              =   1.6104277263527E-04
(PID.TID 0000.0001) %MON forcing_fv_max               =   7.7690660953522E-01
(PID.TID 0000.0001) %MON forcing_fv_min               =  -7.0190182147190E-01
(PID.TID 0000.0001) %MON forcing_fv_mean              =  -5.5328972797886E-03
(PID.TID 0000.0001) %MON forcing_fv_sd                =   1.0724197136814E-01
(PID.TID 0000.0001) %MON forcing_fv_del2              =   1.2884518889185E-04
(PID.TID 0000.0001) %MON trAdv_CFL_u_max              =   2.3413282333800E-02
(PID.TID 0000.0001) %MON trAdv_CFL_v_max              =   2.1673202835699E-02
(PID.TID 0000.0001) %MON trAdv_CFL_w_max              =   6.9554597832585E-02
(PID.TID 0000.0001) %MON advcfl_uvel_max              =   2.3919513232848E-02
(PID.TID 0000.0001) %MON advcfl_vvel_max              =   2.3413488034124E-02
(PID.TID 0000.0001) %MON advcfl_wvel_max              =   6.8973073384193E-02
(PID.TID 0000.0001) %MON advcfl_W_hf_max              =   7.2636361569288E-02
(PID.TID 0000.0001) %MON pe_b_mean                    =   6.8389903807346E-04
(PID.TID 0000.0001) %MON ke_max                       =   9.4441323588468E-01
(PID.TID 0000.0001) %MON ke_mean                      =   5.0455112184714E-04
(PID.TID 0000.0001) %MON ke_vol                       =   1.3349971247922E+18
(PID.TID 0000.0001) %MON vort_r_min                   =  -5.2186264223364E-05
(PID.TID 0000.0001) %MON vort_r_max                   =   4.4955463606808E-05
(PID.TID 0000.0001) %MON vort_a_mean                  =  -1.9727864647440E-05
(PID.TID 0000.0001) %MON vort_a_sd                    =   7.4543370200976E-05
(PID.TID 0000.0001) %MON vort_p_mean                  =  -2.1760541611293E-05
(PID.TID 0000.0001) %MON vort_p_sd                    =   9.7243546367678E-05
(PID.TID 0000.0001) %MON surfExpan_theta_mean         =  -1.9873235627401E-06
(PID.TID 0000.0001) %MON surfExpan_salt_mean          =  -5.5468006808539E-07
(PID.TID 0000.0001) // =======================================================
(PID.TID 0000.0001) // End MONITOR dynamic field statistics
(PID.TID 0000.0001) // =======================================================
 cg2d: Sum(rhs),rhsMax =   6.78959583423882E+01  2.89996468835318E-01
 cg2d: Sum(rhs),rhsMax =   6.85973815525443E+01  2.91047897374220E-01
 cg2d: Sum(rhs),rhsMax =   6.92671521739772E+01  2.92411136757626E-01
 cg2d: Sum(rhs),rhsMax =   6.99108210562252E+01  2.93998851596960E-01
 cg2d: Sum(rhs),rhsMax =   7.05321097903659E+01  2.95693202426819E-01
 cg2d: Sum(rhs),rhsMax =   7.11164175610329E+01  2.97361723546357E-01
 cg2d: Sum(rhs),rhsMax =   7.16656847584718E+01  2.98877822926262E-01
 cg2d: Sum(rhs),rhsMax =   7.21802264292678E+01  3.00136462287249E-01
(PID.TID 0000.0001)      cg2d_init_res =   5.59295340650984E-01
(PID.TID 0000.0001)      cg2d_iters(min,last) =      -1      34
(PID.TID 0000.0001)      cg2d_last_res =   2.79184662541522E-05
(PID.TID 0000.0001) // =======================================================
(PID.TID 0000.0001) // Begin MONITOR dynamic field statistics
(PID.TID 0000.0001) // =======================================================
(PID.TID 0000.0001) %MON time_tsnumber                =                    32
(PID.TID 0000.0001) %MON time_secondsf                =   2.8800000000000E+04
(PID.TID 0000.0001) %MON dynstat_eta_max              =   1.0916898364278E+00
(PID.TID 0000.0001) %MON dynstat_eta_min              =  -3.9565554095372E+00
(PID.TID 0000.0001) %MON dynstat_eta_mean             =  -2.2832910903051E-03
(PID.TID 0000.0001) %MON dynstat_eta_sd               =   7.1933170859407E-01
(PID.TID 0000.0001) %MON dynstat_eta_del2             =   9.3990176406645E-05
(PID.TID 0000.0001) %MON dynstat_uvel_max             =   7.8418264354901E-01
(PID.TID 0000.0001) %MON dynstat_uvel_min             =  -1.5067696501097E+00
(PID.TID 0000.0001) %MON dynstat_uvel_mean            =   1.8680665778447E-03
(PID.TID 0000.0001) %MON dynstat_uvel_sd              =   2.1959312564857E-02
(PID.TID 0000.0001) %MON dynstat_uvel_del2            =   1.3803615368524E-05
(PID.TID 0000.0001) %MON dynstat_vvel_max             =   1.1979073269688E+00
(PID.TID 0000.0001) %MON dynstat_vvel_min             =  -9.3196346146017E-01
(PID.TID 0000.0001) %MON dynstat_vvel_mean            =   1.3876911623728E-03
(PID.TID 0000.0001) %MON dynstat_vvel_sd              =   2.3430278680979E-02
(PID.TID 0000.0001) %MON dynstat_vvel_del2            =   1.4827541245421E-05
(PID.TID 0000.0001) %MON dynstat_wvel_max             =   2.8015898398283E-03
(PID.TID 0000.0001) %MON dynstat_wvel_min             =  -3.9504887007266E-03
(PID.TID 0000.0001) %MON dynstat_wvel_mean            =   7.3548841636848E-08
(PID.TID 0000.0001) %MON dynstat_wvel_sd              =   3.5352460488623E-05
(PID.TID 0000.0001) %MON dynstat_wvel_del2            =   5.0001799504812E-08
(PID.TID 0000.0001) %MON dynstat_theta_max            =   3.2664600559280E+01
(PID.TID 0000.0001) %MON dynstat_theta_min            =  -2.0422493934942E+00
(PID.TID 0000.0001) %MON dynstat_theta_mean           =   3.5906285622499E+00
(PID.TID 0000.0001) %MON dynstat_theta_sd             =   4.4367320669792E+00
(PID.TID 0000.0001) %MON dynstat_theta_del2           =   1.0809676777749E-04
(PID.TID 0000.0001) %MON dynstat_salt_max             =   4.0711522042441E+01
(PID.TID 0000.0001) %MON dynstat_salt_min             =   1.8849428905169E+01
(PID.TID 0000.0001) %MON dynstat_salt_mean            =   3.4725671649273E+01
(PID.TID 0000.0001) %MON dynstat_salt_sd              =   3.7735572299571E-01
(PID.TID 0000.0001) %MON dynstat_salt_del2            =   2.6481699802975E-05
(PID.TID 0000.0001) %MON dynstat_sst_max              =   3.2664600559280E+01
(PID.TID 0000.0001) %MON dynstat_sst_min              =  -1.9533191350870E+00
(PID.TID 0000.0001) %MON dynstat_sst_mean             =   1.8499794199880E+01
(PID.TID 0000.0001) %MON dynstat_sst_sd               =   1.0104913442465E+01
(PID.TID 0000.0001) %MON dynstat_sst_del2             =   8.7734711702946E-04
(PID.TID 0000.0001) %MON dynstat_sss_max              =   3.9537739119737E+01
(PID.TID 0000.0001) %MON dynstat_sss_min              =   1.8849428905169E+01
(PID.TID 0000.0001) %MON dynstat_sss_mean             =   3.4685422973551E+01
(PID.TID 0000.0001) %MON dynstat_sss_sd               =   1.1275627202584E+00
(PID.TID 0000.0001) %MON dynstat_sss_del2             =   3.8782886007377E-04
(PID.TID 0000.0001) %MON forcing_qnet_max             =   2.2725205078125E+03
(PID.TID 0000.0001) %MON forcing_qnet_min             =  -1.2717764674009E+03
(PID.TID 0000.0001) %MON forcing_qnet_mean            =   1.7224016390427E+01
(PID.TID 0000.0001) %MON forcing_qnet_sd              =   2.1133019510926E+02
(PID.TID 0000.0001) %MON forcing_qnet_del2            =   6.5520486042085E-01
(PID.TID 0000.0001) %MON forcing_qsw_max              =   0.0000000000000E+00
(PID.TID 0000.0001) %MON forcing_qsw_min              =  -4.3941407029897E+02
(PID.TID 0000.0001) %MON forcing_qsw_mean             =  -6.5661697915122E+01
(PID.TID 0000.0001) %MON forcing_qsw_sd               =   1.0233243513911E+02
(PID.TID 0000.0001) %MON forcing_qsw_del2             =   1.7545778086086E-01
(PID.TID 0000.0001) %MON forcing_empmr_max            =   3.4224446862936E-03
(PID.TID 0000.0001) %MON forcing_empmr_min            =  -7.1508385241032E-02
(PID.TID 0000.0001) %MON forcing_empmr_mean           =   1.8609575199449E-05
(PID.TID 0000.0001) %MON forcing_empmr_sd             =   3.9670039639388E-04
(PID.TID 0000.0001) %MON forcing_empmr_del2           =   2.9042880888404E-06
(PID.TID 0000.0001) %MON forcing_fu_max               =   1.0728453993797E+00
(PID.TID 0000.0001) %MON forcing_fu_min               =  -9.6414566040039E-01
(PID.TID 0000.0001) %MON forcing_fu_mean              =   1.3279264300583E-02
(PID.TID 0000.0001) %MON forcing_fu_sd                =   1.0936457296408E-01
(PID.TID 0000.0001) %MON forcing_fu_del2              =   1.5629694725539E-04
(PID.TID 0000.0001) %MON forcing_fv_max               =   7.3440787196159E-01
(PID.TID 0000.0001) %MON forcing_fv_min               =  -7.0539835932374E-01
(PID.TID 0000.0001) %MON forcing_fv_mean              =  -6.7484480530831E-03
(PID.TID 0000.0001) %MON forcing_fv_sd                =   1.0600227249348E-01
(PID.TID 0000.0001) %MON forcing_fv_del2              =   1.2573838425745E-04
(PID.TID 0000.0001) %MON trAdv_CFL_u_max              =   2.3779161086889E-02
(PID.TID 0000.0001) %MON trAdv_CFL_v_max              =   2.2097414163901E-02
(PID.TID 0000.0001) %MON trAdv_CFL_w_max              =   5.8920101323541E-02
(PID.TID 0000.0001) %MON advcfl_uvel_max              =   2.4929376477875E-02
(PID.TID 0000.0001) %MON advcfl_vvel_max              =   2.1263795750692E-02
(PID.TID 0000.0001) %MON advcfl_wvel_max              =   5.7611094435220E-02
(PID.TID 0000.0001) %MON advcfl_W_hf_max              =   6.0555024085737E-02
(PID.TID 0000.0001) %MON pe_b_mean                    =   6.8064604801802E-04
(PID.TID 0000.0001) %MON ke_max                       =   1.0370596911303E+00
(PID.TID 0000.0001) %MON ke_mean                      =   4.9984545491252E-04
(PID.TID 0000.0001) %MON ke_vol                       =   1.3349970653167E+18
(PID.TID 0000.0001) %MON vort_r_min                   =  -4.4920884114595E-05
(PID.TID 0000.0001) %MON vort_r_max                   =   4.3818037151856E-05
(PID.TID 0000.0001) %MON vort_a_mean                  =  -1.9727864647440E-05
(PID.TID 0000.0001) %MON vort_a_sd                    =   7.4543357662675E-05
(PID.TID 0000.0001) %MON vort_p_mean                  =  -2.1760542993360E-05
(PID.TID 0000.0001) %MON vort_p_sd                    =   9.7244147307527E-05
(PID.TID 0000.0001) %MON surfExpan_theta_mean         =  -1.5479497289430E-06
(PID.TID 0000.0001) %MON surfExpan_salt_mean          =  -3.9943276540366E-07
(PID.TID 0000.0001) // =======================================================
(PID.TID 0000.0001) // End MONITOR dynamic field statistics
(PID.TID 0000.0001) // =======================================================
 cg2d: Sum(rhs),rhsMax =   7.26626881521743E+01  3.01067156224935E-01
 cg2d: Sum(rhs),rhsMax =   7.31112728358937E+01  3.01638754452312E-01
 cg2d: Sum(rhs),rhsMax =   7.35384529777920E+01  3.01859320644592E-01
 cg2d: Sum(rhs),rhsMax =   7.39339466928144E+01  3.01770419068359E-01
 cg2d: Sum(rhs),rhsMax =   7.42975244152003E+01  3.01438768264769E-01
 cg2d: Sum(rhs),rhsMax =   7.46383503415296E+01  3.00945035023686E-01
 cg2d: Sum(rhs),rhsMax =   7.49561040894050E+01  3.00373164912001E-01
 cg2d: Sum(rhs),rhsMax =   7.52539648193071E+01  2.99801716608941E-01
(PID.TID 0000.0001)      cg2d_init_res =   4.82494611717185E-01
(PID.TID 0000.0001)      cg2d_iters(min,last) =      -1      33
(PID.TID 0000.0001)      cg2d_last_res =   2.43646461930581E-05
(PID.TID 0000.0001) // =======================================================
(PID.TID 0000.0001) // Begin MONITOR dynamic field statistics
(PID.TID 0000.0001) // =======================================================
(PID.TID 0000.0001) %MON time_tsnumber                =                    40
(PID.TID 0000.0001) %MON time_secondsf                =   3.6000000000000E+04
(PID.TID 0000.0001) %MON dynstat_eta_max              =   1.1802277701250E+00
(PID.TID 0000.0001) %MON dynstat_eta_min              =  -3.8021405599885E+00
(PID.TID 0000.0001) %MON dynstat_eta_mean             =  -2.3805232524512E-03
(PID.TID 0000.0001) %MON dynstat_eta_sd               =   7.1779800541819E-01
(PID.TID 0000.0001) %MON dynstat_eta_del2             =   8.8870551334313E-05
(PID.TID 0000.0001) %MON dynstat_uvel_max             =   6.5377430054803E-01
(PID.TID 0000.0001) %MON dynstat_uvel_min             =  -1.4605084680972E+00
(PID.TID 0000.0001) %MON dynstat_uvel_mean            =   1.8032999917482E-03
(PID.TID 0000.0001) %MON dynstat_uvel_sd              =   2.1835194767192E-02
(PID.TID 0000.0001) %MON dynstat_uvel_del2            =   1.3461378039480E-05
(PID.TID 0000.0001) %MON dynstat_vvel_max             =   1.2266582830755E+00
(PID.TID 0000.0001) %MON dynstat_vvel_min             =  -9.3112381210911E-01
(PID.TID 0000.0001) %MON dynstat_vvel_mean            =   1.4703941945162E-03
(PID.TID 0000.0001) %MON dynstat_vvel_sd              =   2.3282019290035E-02
(PID.TID 0000.0001) %MON dynstat_vvel_del2            =   1.4352950134103E-05
(PID.TID 0000.0001) %MON dynstat_wvel_max             =   2.8526432059955E-03
(PID.TID 0000.0001) %MON dynstat_wvel_min             =  -3.9879890003851E-03
(PID.TID 0000.0001) %MON dynstat_wvel_mean            =   6.2673546698781E-08
(PID.TID 0000.0001) %MON dynstat_wvel_sd              =   3.5925783650396E-05
(PID.TID 0000.0001) %MON dynstat_wvel_del2            =   5.2755455731122E-08
(PID.TID 0000.0001) %MON dynstat_theta_max            =   3.2669965154863E+01
(PID.TID 0000.0001) %MON dynstat_theta_min            =  -2.0423182115972E+00
(PID.TID 0000.0001) %MON dynstat_theta_mean           =   3.5906142124299E+00
(PID.TID 0000.0001) %MON dynstat_theta_sd             =   4.4366747789289E+00
(PID.TID 0000.0001) %MON dynstat_theta_del2           =   1.0750931564689E-04
(PID.TID 0000.0001) %MON dynstat_salt_max             =   4.0711522971909E+01
(PID.TID 0000.0001) %MON dynstat_salt_min             =   1.8842623030242E+01
(PID.TID 0000.0001) %MON dynstat_salt_mean            =   3.4725655508941E+01
(PID.TID 0000.0001) %MON dynstat_salt_sd              =   3.7728452705751E-01
(PID.TID 0000.0001) %MON dynstat_salt_del2            =   2.6430986362684E-05
(PID.TID 0000.0001) %MON dynstat_sst_max              =   3.2669965154863E+01
(PID.TID 0000.0001) %MON dynstat_sst_min              =  -1.9519161724138E+00
(PID.TID 0000.0001) %MON dynstat_sst_mean             =   1.8493599768810E+01
(PID.TID 0000.0001) %MON dynstat_sst_sd               =   1.0106647519125E+01
(PID.TID 0000.0001) %MON dynstat_sst_del2             =   8.7548107721365E-04
(PID.TID 0000.0001) %MON dynstat_sss_max              =   3.9503809793804E+01
(PID.TID 0000.0001) %MON dynstat_sss_min              =   1.8842623030242E+01
(PID.TID 0000.0001) %MON dynstat_sss_mean             =   3.4683331690344E+01
(PID.TID 0000.0001) %MON dynstat_sss_sd               =   1.1247714212132E+00
(PID.TID 0000.0001) %MON dynstat_sss_del2             =   4.0105516069706E-04
(PID.TID 0000.0001) %MON forcing_qnet_max             =   2.1885834960938E+03
(PID.TID 0000.0001) %MON forcing_qnet_min             =  -1.2882820640501E+03
(PID.TID 0000.0001) %MON forcing_qnet_mean            =   4.0157780895676E+01
(PID.TID 0000.0001) %MON forcing_qnet_sd              =   2.0670282942729E+02
(PID.TID 0000.0001) %MON forcing_qnet_del2            =   6.2111933326400E-01
(PID.TID 0000.0001) %MON forcing_qsw_max              =   0.0000000000000E+00
(PID.TID 0000.0001) %MON forcing_qsw_min              =  -4.3675294566523E+02
(PID.TID 0000.0001) %MON forcing_qsw_mean             =  -5.6650730509619E+01
(PID.TID 0000.0001) %MON forcing_qsw_sd               =   1.0320195964477E+02
(PID.TID 0000.0001) %MON forcing_qsw_del2             =   1.7120701149417E-01
(PID.TID 0000.0001) %MON forcing_empmr_max            =   3.4938452299684E-03
(PID.TID 0000.0001) %MON forcing_empmr_min            =  -1.2061353027821E-01
(PID.TID 0000.0001) %MON forcing_empmr_mean           =   1.0772813878145E-05
(PID.TID 0000.0001) %MON forcing_empmr_sd             =   4.7828234244145E-04
(PID.TID 0000.0001) %MON forcing_empmr_del2           =   4.3785056638865E-06
(PID.TID 0000.0001) %MON forcing_fu_max               =   1.0596073865891E+00
(PID.TID 0000.0001) %MON forcing_fu_min               =  -8.9782527089119E-01
(PID.TID 0000.0001) %MON forcing_fu_mean              =   1.3482104382273E-02
(PID.TID 0000.0001) %MON forcing_fu_sd                =   1.0761071327678E-01
(PID.TID 0000.0001) %MON forcing_fu_del2              =   1.5186517961044E-04
(PID.TID 0000.0001) %MON forcing_fv_max               =   7.9739490151405E-01
(PID.TID 0000.0001) %MON forcing_fv_min               =  -6.2737036744608E-01
(PID.TID 0000.0001) %MON forcing_fv_mean              =  -7.8730337002633E-03
(PID.TID 0000.0001) %MON forcing_fv_sd                =   1.0527405964707E-01
(PID.TID 0000.0001) %MON forcing_fv_del2              =   1.2202885664998E-04
(PID.TID 0000.0001) %MON trAdv_CFL_u_max              =   2.3040738036271E-02
(PID.TID 0000.0001) %MON trAdv_CFL_v_max              =   2.2578645963162E-02
(PID.TID 0000.0001) %MON trAdv_CFL_w_max              =   7.3712861530325E-02
(PID.TID 0000.0001) %MON advcfl_uvel_max              =   2.4163989132426E-02
(PID.TID 0000.0001) %MON advcfl_vvel_max              =   2.1774147799240E-02
(PID.TID 0000.0001) %MON advcfl_wvel_max              =   7.1306023063639E-02
(PID.TID 0000.0001) %MON advcfl_W_hf_max              =   7.2280009491496E-02
(PID.TID 0000.0001) %MON pe_b_mean                    =   6.7774734559440E-04
(PID.TID 0000.0001) %MON ke_max                       =   9.6633622244155E-01
(PID.TID 0000.0001) %MON ke_mean                      =   4.9388421537882E-04
(PID.TID 0000.0001) %MON ke_vol                       =   1.3349970280523E+18
(PID.TID 0000.0001) %MON vort_r_min                   =  -4.0918627280356E-05
(PID.TID 0000.0001) %MON vort_r_max                   =   4.1912059535565E-05
(PID.TID 0000.0001) %MON vort_a_mean                  =  -1.9727864647440E-05
(PID.TID 0000.0001) %MON vort_a_sd                    =   7.4543353695339E-05
(PID.TID 0000.0001) %MON vort_p_mean                  =  -2.1760543937778E-05
(PID.TID 0000.0001) %MON vort_p_sd                    =   9.7244522165978E-05
(PID.TID 0000.0001) %MON surfExpan_theta_mean         =  -1.7391691353208E-06
(PID.TID 0000.0001) %MON surfExpan_salt_mean          =  -3.0103348452863E-07
(PID.TID 0000.0001) // =======================================================
(PID.TID 0000.0001) // End MONITOR dynamic field statistics
(PID.TID 0000.0001) // =======================================================
 cg2d: Sum(rhs),rhsMax =   7.55282027656042E+01  2.99295304498800E-01
 cg2d: Sum(rhs),rhsMax =   7.57771355486851E+01  2.98901213458867E-01
 cg2d: Sum(rhs),rhsMax =   7.60099074513579E+01  2.98646660920539E-01
 cg2d: Sum(rhs),rhsMax =   7.62266506174159E+01  2.98539207016165E-01
 cg2d: Sum(rhs),rhsMax =   7.64247094326151E+01  2.98570045369978E-01
 cg2d: Sum(rhs),rhsMax =   7.66097134686200E+01  2.98716407006371E-01
 cg2d: Sum(rhs),rhsMax =   7.67745338415696E+01  2.98945896197578E-01
 cg2d: Sum(rhs),rhsMax =   7.69293312136583E+01  2.99223162823859E-01
(PID.TID 0000.0001)      cg2d_init_res =   4.20839912279936E-01
(PID.TID 0000.0001)      cg2d_iters(min,last) =      -1      31
(PID.TID 0000.0001)      cg2d_last_res =   2.43764439315059E-05
(PID.TID 0000.0001) // =======================================================
(PID.TID 0000.0001) // Begin MONITOR dynamic field statistics
(PID.TID 0000.0001) // =======================================================
(PID.TID 0000.0001) %MON time_tsnumber                =                    48
(PID.TID 0000.0001) %MON time_secondsf                =   4.3200000000000E+04
(PID.TID 0000.0001) %MON dynstat_eta_max              =   1.1415967544317E+00
(PID.TID 0000.0001) %MON dynstat_eta_min              =  -3.5148897404810E+00
(PID.TID 0000.0001) %MON dynstat_eta_mean             =  -2.4335204422698E-03
(PID.TID 0000.0001) %MON dynstat_eta_sd               =   7.1380014405163E-01
(PID.TID 0000.0001) %MON dynstat_eta_del2             =   8.9013528374031E-05
(PID.TID 0000.0001) %MON dynstat_uvel_max             =   8.2044340637154E-01
(PID.TID 0000.0001) %MON dynstat_uvel_min             =  -1.4139433825482E+00
(PID.TID 0000.0001) %MON dynstat_uvel_mean            =   1.7542293178173E-03
(PID.TID 0000.0001) %MON dynstat_uvel_sd              =   2.1756596306040E-02
(PID.TID 0000.0001) %MON dynstat_uvel_del2            =   1.3359529462866E-05
(PID.TID 0000.0001) %MON dynstat_vvel_max             =   1.3041187352735E+00
(PID.TID 0000.0001) %MON dynstat_vvel_min             =  -9.2926757138437E-01
(PID.TID 0000.0001) %MON dynstat_vvel_mean            =   1.5505639857260E-03
(PID.TID 0000.0001) %MON dynstat_vvel_sd              =   2.3146630984299E-02
(PID.TID 0000.0001) %MON dynstat_vvel_del2            =   1.4063342735639E-05
(PID.TID 0000.0001) %MON dynstat_wvel_max             =   3.3771830819965E-03
(PID.TID 0000.0001) %MON dynstat_wvel_min             =  -3.4205829102470E-03
(PID.TID 0000.0001) %MON dynstat_wvel_mean            =   6.1346562277141E-08
(PID.TID 0000.0001) %MON dynstat_wvel_sd              =   3.5471392998247E-05
(PID.TID 0000.0001) %MON dynstat_wvel_del2            =   5.3970651568844E-08
(PID.TID 0000.0001) %MON dynstat_theta_max            =   3.2654340006376E+01
(PID.TID 0000.0001) %MON dynstat_theta_min            =  -2.0423479762565E+00
(PID.TID 0000.0001) %MON dynstat_theta_mean           =   3.5905930241629E+00
(PID.TID 0000.0001) %MON dynstat_theta_sd             =   4.4365881331577E+00
(PID.TID 0000.0001) %MON dynstat_theta_del2           =   1.0690628583611E-04
(PID.TID 0000.0001) %MON dynstat_salt_max             =   4.0711524356386E+01
(PID.TID 0000.0001) %MON dynstat_salt_min             =   1.8835883911061E+01
(PID.TID 0000.0001) %MON dynstat_salt_mean            =   3.4725643619340E+01
(PID.TID 0000.0001) %MON dynstat_salt_sd              =   3.7723140904771E-01
(PID.TID 0000.0001) %MON dynstat_salt_del2            =   2.6536103158084E-05
(PID.TID 0000.0001) %MON dynstat_sst_max              =   3.2653454831887E+01
(PID.TID 0000.0001) %MON dynstat_sst_min              =  -1.9508408656451E+00
(PID.TID 0000.0001) %MON dynstat_sst_mean             =   1.8487296924635E+01
(PID.TID 0000.0001) %MON dynstat_sst_sd               =   1.0107369382503E+01
(PID.TID 0000.0001) %MON dynstat_sst_del2             =   8.7330427909699E-04
(PID.TID 0000.0001) %MON dynstat_sss_max              =   3.9473281762494E+01
(PID.TID 0000.0001) %MON dynstat_sss_min              =   1.8835883911061E+01
(PID.TID 0000.0001) %MON dynstat_sss_mean             =   3.4682751976372E+01
(PID.TID 0000.0001) %MON dynstat_sss_sd               =   1.1238879632334E+00
(PID.TID 0000.0001) %MON dynstat_sss_del2             =   4.2800072973508E-04
(PID.TID 0000.0001) %MON forcing_qnet_max             =   2.7416229968416E+03
(PID.TID 0000.0001) %MON forcing_qnet_min             =  -1.2802642822266E+03
(PID.TID 0000.0001) %MON forcing_qnet_mean            =   4.6621775593709E+01
(PID.TID 0000.0001) %MON forcing_qnet_sd              =   1.9797451871905E+02
(PID.TID 0000.0001) %MON forcing_qnet_del2            =   5.9888535911366E-01
(PID.TID 0000.0001) %MON forcing_qsw_max              =   0.0000000000000E+00
(PID.TID 0000.0001) %MON forcing_qsw_min              =  -4.4385526823174E+02
(PID.TID 0000.0001) %MON forcing_qsw_mean             =  -5.3730776798113E+01
(PID.TID 0000.0001) %MON forcing_qsw_sd               =   9.8696247728942E+01
(PID.TID 0000.0001) %MON forcing_qsw_del2             =   1.6535409195323E-01
(PID.TID 0000.0001) %MON forcing_empmr_max            =   4.1042040102184E-03
(PID.TID 0000.0001) %MON forcing_empmr_min            =  -1.3303177058697E-01
(PID.TID 0000.0001) %MON forcing_empmr_mean           =   5.5986006578262E-06
(PID.TID 0000.0001) %MON forcing_empmr_sd             =   4.9174909001583E-04
(PID.TID 0000.0001) %MON forcing_empmr_del2           =   4.9901391444100E-06
(PID.TID 0000.0001) %MON forcing_fu_max               =   1.0510440468788E+00
(PID.TID 0000.0001) %MON forcing_fu_min               =  -8.2705572247505E-01
(PID.TID 0000.0001) %MON forcing_fu_mean              =   1.3186485880436E-02
(PID.TID 0000.0001) %MON forcing_fu_sd                =   1.0607405026795E-01
(PID.TID 0000.0001) %MON forcing_fu_del2              =   1.4759217897585E-04
(PID.TID 0000.0001) %MON forcing_fv_max               =   7.8086733818054E-01
(PID.TID 0000.0001) %MON forcing_fv_min               =  -6.7269398391625E-01
(PID.TID 0000.0001) %MON forcing_fv_mean              =  -8.4920793634666E-03
(PID.TID 0000.0001) %MON forcing_fv_sd                =   1.0431018504516E-01
(PID.TID 0000.0001) %MON forcing_fv_del2              =   1.1858758451523E-04
(PID.TID 0000.0001) %MON trAdv_CFL_u_max              =   2.2278896371615E-02
(PID.TID 0000.0001) %MON trAdv_CFL_v_max              =   2.3951614423234E-02
(PID.TID 0000.0001) %MON trAdv_CFL_w_max              =   9.1909594303575E-02
(PID.TID 0000.0001) %MON advcfl_uvel_max              =   2.3393573728658E-02
(PID.TID 0000.0001) %MON advcfl_vvel_max              =   2.3149131654178E-02
(PID.TID 0000.0001) %MON advcfl_wvel_max              =   8.9631681565632E-02
(PID.TID 0000.0001) %MON advcfl_W_hf_max              =   9.0854755960610E-02
(PID.TID 0000.0001) %MON pe_b_mean                    =   6.7021920959690E-04
(PID.TID 0000.0001) %MON ke_max                       =   1.0163697008886E+00
(PID.TID 0000.0001) %MON ke_mean                      =   4.8923345230064E-04
(PID.TID 0000.0001) %MON ke_vol                       =   1.3349970074583E+18
(PID.TID 0000.0001) %MON vort_r_min                   =  -4.0327630790479E-05
(PID.TID 0000.0001) %MON vort_r_max                   =   3.9330019865852E-05
(PID.TID 0000.0001) %MON vort_a_mean                  =  -1.9727864647440E-05
(PID.TID 0000.0001) %MON vort_a_sd                    =   7.4543361586299E-05
(PID.TID 0000.0001) %MON vort_p_mean                  =  -2.1760544400792E-05
(PID.TID 0000.0001) %MON vort_p_sd                    =   9.7244786624987E-05
(PID.TID 0000.0001) %MON surfExpan_theta_mean         =  -2.3614981393787E-06
(PID.TID 0000.0001) %MON surfExpan_salt_mean          =  -2.1766364567483E-07
(PID.TID 0000.0001) // =======================================================
(PID.TID 0000.0001) // End MONITOR dynamic field statistics
(PID.TID 0000.0001) // =======================================================
 cg2d: Sum(rhs),rhsMax =   7.70692095945312E+01  2.99511423720952E-01
 cg2d: Sum(rhs),rhsMax =   7.72058343396361E+01  2.99777824715972E-01
 cg2d: Sum(rhs),rhsMax =   7.73291934088717E+01  2.99996001619542E-01
 cg2d: Sum(rhs),rhsMax =   7.74460235115835E+01  3.00147856122978E-01
 cg2d: Sum(rhs),rhsMax =   7.75498562798911E+01  3.00224426886518E-01
 cg2d: Sum(rhs),rhsMax =   7.76526570055044E+01  3.00225120657472E-01
 cg2d: Sum(rhs),rhsMax =   7.77445101112381E+01  3.00158426699679E-01
 cg2d: Sum(rhs),rhsMax =   7.78231766076853E+01  3.00039709347136E-01
(PID.TID 0000.0001)      cg2d_init_res =   3.88727328280350E-01
(PID.TID 0000.0001)      cg2d_iters(min,last) =      -1      32
(PID.TID 0000.0001)      cg2d_last_res =   2.70461351281003E-05
(PID.TID 0000.0001) // =======================================================
(PID.TID 0000.0001) // Begin MONITOR dynamic field statistics
(PID.TID 0000.0001) // =======================================================
(PID.TID 0000.0001) %MON time_tsnumber                =                    56
(PID.TID 0000.0001) %MON time_secondsf                =   5.0400000000000E+04
(PID.TID 0000.0001) %MON dynstat_eta_max              =   1.0891962809577E+00
(PID.TID 0000.0001) %MON dynstat_eta_min              =  -3.3199369232872E+00
(PID.TID 0000.0001) %MON dynstat_eta_mean             =  -2.4617956268357E-03
(PID.TID 0000.0001) %MON dynstat_eta_sd               =   7.0853185143728E-01
(PID.TID 0000.0001) %MON dynstat_eta_del2             =   8.9121289187081E-05
(PID.TID 0000.0001) %MON dynstat_uvel_max             =   1.1507740290452E+00
(PID.TID 0000.0001) %MON dynstat_uvel_min             =  -1.3901386225938E+00
(PID.TID 0000.0001) %MON dynstat_uvel_mean            =   1.7115891130980E-03
(PID.TID 0000.0001) %MON dynstat_uvel_sd              =   2.1720276758891E-02
(PID.TID 0000.0001) %MON dynstat_uvel_del2            =   1.3348220519387E-05
(PID.TID 0000.0001) %MON dynstat_vvel_max             =   1.3816799688729E+00
(PID.TID 0000.0001) %MON dynstat_vvel_min             =  -1.3963721488710E+00
(PID.TID 0000.0001) %MON dynstat_vvel_mean            =   1.6024766600763E-03
(PID.TID 0000.0001) %MON dynstat_vvel_sd              =   2.3001146998257E-02
(PID.TID 0000.0001) %MON dynstat_vvel_del2            =   1.3861664484006E-05
(PID.TID 0000.0001) %MON dynstat_wvel_max             =   3.9030690151649E-03
(PID.TID 0000.0001) %MON dynstat_wvel_min             =  -2.5881102443489E-03
(PID.TID 0000.0001) %MON dynstat_wvel_mean            =   7.1082172072933E-08
(PID.TID 0000.0001) %MON dynstat_wvel_sd              =   3.4673658348887E-05
(PID.TID 0000.0001) %MON dynstat_wvel_del2            =   5.4205394226653E-08
(PID.TID 0000.0001) %MON dynstat_theta_max            =   3.2650543302879E+01
(PID.TID 0000.0001) %MON dynstat_theta_min            =  -2.0423177829472E+00
(PID.TID 0000.0001) %MON dynstat_theta_mean           =   3.5905739907719E+00
(PID.TID 0000.0001) %MON dynstat_theta_sd             =   4.4365051148692E+00
(PID.TID 0000.0001) %MON dynstat_theta_del2           =   1.0631673746605E-04
(PID.TID 0000.0001) %MON dynstat_salt_max             =   4.0711525824580E+01
(PID.TID 0000.0001) %MON dynstat_salt_min             =   1.8829996871500E+01
(PID.TID 0000.0001) %MON dynstat_salt_mean            =   3.4725634779909E+01
(PID.TID 0000.0001) %MON dynstat_salt_sd              =   3.7719202699341E-01
(PID.TID 0000.0001) %MON dynstat_salt_del2            =   2.6725155487789E-05
(PID.TID 0000.0001) %MON dynstat_sst_max              =   3.2629605366736E+01
(PID.TID 0000.0001) %MON dynstat_sst_min              =  -1.9497689934940E+00
(PID.TID 0000.0001) %MON dynstat_sst_mean             =   1.8483388286584E+01
(PID.TID 0000.0001) %MON dynstat_sst_sd               =   1.0107855626899E+01
(PID.TID 0000.0001) %MON dynstat_sst_del2             =   8.7109829578529E-04
(PID.TID 0000.0001) %MON dynstat_sss_max              =   3.9445497804731E+01
(PID.TID 0000.0001) %MON dynstat_sss_min              =   1.8829996871500E+01
(PID.TID 0000.0001) %MON dynstat_sss_mean             =   3.4683146996287E+01
(PID.TID 0000.0001) %MON dynstat_sss_sd               =   1.1243100110367E+00
(PID.TID 0000.0001) %MON dynstat_sss_del2             =   4.5932275156062E-04
(PID.TID 0000.0001) %MON forcing_qnet_max             =   2.4699787597656E+03
(PID.TID 0000.0001) %MON forcing_qnet_min             =  -1.2707220079510E+03
(PID.TID 0000.0001) %MON forcing_qnet_mean            =   3.6293650056966E+01
(PID.TID 0000.0001) %MON forcing_qnet_sd              =   1.9478755384647E+02
(PID.TID 0000.0001) %MON forcing_qnet_del2            =   5.5375252783852E-01
(PID.TID 0000.0001) %MON forcing_qsw_max              =   0.0000000000000E+00
(PID.TID 0000.0001) %MON forcing_qsw_min              =  -3.9394361833189E+02
(PID.TID 0000.0001) %MON forcing_qsw_mean             =  -5.7815394359904E+01
(PID.TID 0000.0001) %MON forcing_qsw_sd               =   9.7022890828000E+01
(PID.TID 0000.0001) %MON forcing_qsw_del2             =   1.6587628082142E-01
(PID.TID 0000.0001) %MON forcing_empmr_max            =   4.5770942233503E-03
(PID.TID 0000.0001) %MON forcing_empmr_min            =  -9.2504993081093E-02
(PID.TID 0000.0001) %MON forcing_empmr_mean           =   2.8451535889514E-06
(PID.TID 0000.0001) %MON forcing_empmr_sd             =   3.9788323573841E-04
(PID.TID 0000.0001) %MON forcing_empmr_del2           =   4.1040970140429E-06
(PID.TID 0000.0001) %MON forcing_fu_max               =   1.0525828003883E+00
(PID.TID 0000.0001) %MON forcing_fu_min               =  -7.3558008670807E-01
(PID.TID 0000.0001) %MON forcing_fu_mean              =   1.2476330922633E-02
(PID.TID 0000.0001) %MON forcing_fu_sd                =   1.0482468547490E-01
(PID.TID 0000.0001) %MON forcing_fu_del2              =   1.4432595981653E-04
(PID.TID 0000.0001) %MON forcing_fv_max               =   8.0762860178948E-01
(PID.TID 0000.0001) %MON forcing_fv_min               =  -6.8686480180003E-01
(PID.TID 0000.0001) %MON forcing_fv_mean              =  -8.4268636028604E-03
(PID.TID 0000.0001) %MON forcing_fv_sd                =   1.0317137273464E-01
(PID.TID 0000.0001) %MON forcing_fv_del2              =   1.1719146437391E-04
(PID.TID 0000.0001) %MON trAdv_CFL_u_max              =   2.1894150157844E-02
(PID.TID 0000.0001) %MON trAdv_CFL_v_max              =   2.6714799113487E-02
(PID.TID 0000.0001) %MON trAdv_CFL_w_max              =   8.9847651366749E-02
(PID.TID 0000.0001) %MON advcfl_uvel_max              =   2.2999725987679E-02
(PID.TID 0000.0001) %MON advcfl_vvel_max              =   2.8349951233290E-02
(PID.TID 0000.0001) %MON advcfl_wvel_max              =   9.3587053092478E-02
(PID.TID 0000.0001) %MON advcfl_W_hf_max              =   9.9004288689647E-02
(PID.TID 0000.0001) %MON pe_b_mean                    =   6.6036274497096E-04
(PID.TID 0000.0001) %MON ke_max                       =   1.1237665073009E+00
(PID.TID 0000.0001) %MON ke_mean                      =   4.8524194335875E-04
(PID.TID 0000.0001) %MON ke_vol                       =   1.3349969964732E+18
(PID.TID 0000.0001) %MON vort_r_min                   =  -4.2363485544263E-05
(PID.TID 0000.0001) %MON vort_r_max                   =   4.1558298125296E-05
(PID.TID 0000.0001) %MON vort_a_mean                  =  -1.9727864647440E-05
(PID.TID 0000.0001) %MON vort_a_sd                    =   7.4543363619229E-05
(PID.TID 0000.0001) %MON vort_p_mean                  =  -2.1760544688851E-05
(PID.TID 0000.0001) %MON vort_p_sd                    =   9.7245146165348E-05
(PID.TID 0000.0001) %MON surfExpan_theta_mean         =  -2.8048945587028E-06
(PID.TID 0000.0001) %MON surfExpan_salt_mean          =  -2.5364959889528E-07
(PID.TID 0000.0001) // =======================================================
(PID.TID 0000.0001) // End MONITOR dynamic field statistics
(PID.TID 0000.0001) // =======================================================
 cg2d: Sum(rhs),rhsMax =   7.78937593478489E+01  2.99888118322011E-01
 cg2d: Sum(rhs),rhsMax =   7.79545794865030E+01  2.99726240033379E-01
 cg2d: Sum(rhs),rhsMax =   7.80100309892403E+01  2.99576485052130E-01
 cg2d: Sum(rhs),rhsMax =   7.80465191332810E+01  2.99460543026285E-01
 cg2d: Sum(rhs),rhsMax =   7.80733732398374E+01  2.99396493064417E-01
 cg2d: Sum(rhs),rhsMax =   7.80899439891572E+01  2.99397761813998E-01
 cg2d: Sum(rhs),rhsMax =   7.80960603628677E+01  2.99473425582617E-01
 cg2d: Sum(rhs),rhsMax =   7.80997880112312E+01  2.99626418295936E-01
(PID.TID 0000.0001)      cg2d_init_res =   3.63875091609037E-01
(PID.TID 0000.0001)      cg2d_iters(min,last) =      -1      33
(PID.TID 0000.0001)      cg2d_last_res =   1.97456640943766E-05
(PID.TID 0000.0001) // =======================================================
(PID.TID 0000.0001) // Begin MONITOR dynamic field statistics
(PID.TID 0000.0001) // =======================================================
(PID.TID 0000.0001) %MON time_tsnumber                =                    64
(PID.TID 0000.0001) %MON time_secondsf                =   5.7600000000000E+04
(PID.TID 0000.0001) %MON dynstat_eta_max              =   1.0899843987658E+00
(PID.TID 0000.0001) %MON dynstat_eta_min              =  -3.1646680783451E+00
(PID.TID 0000.0001) %MON dynstat_eta_mean             =  -2.4705457289680E-03
(PID.TID 0000.0001) %MON dynstat_eta_sd               =   7.0287148267937E-01
(PID.TID 0000.0001) %MON dynstat_eta_del2             =   8.7727108157342E-05
(PID.TID 0000.0001) %MON dynstat_uvel_max             =   1.0623836798024E+00
(PID.TID 0000.0001) %MON dynstat_uvel_min             =  -1.3795007676855E+00
(PID.TID 0000.0001) %MON dynstat_uvel_mean            =   1.6067862835587E-03
(PID.TID 0000.0001) %MON dynstat_uvel_sd              =   2.1645386839198E-02
(PID.TID 0000.0001) %MON dynstat_uvel_del2            =   1.3353711660782E-05
(PID.TID 0000.0001) %MON dynstat_vvel_max             =   1.3977155218732E+00
(PID.TID 0000.0001) %MON dynstat_vvel_min             =  -1.1963571877335E+00
(PID.TID 0000.0001) %MON dynstat_vvel_mean            =   1.6430286998962E-03
(PID.TID 0000.0001) %MON dynstat_vvel_sd              =   2.2888083866596E-02
(PID.TID 0000.0001) %MON dynstat_vvel_del2            =   1.3656182950469E-05
(PID.TID 0000.0001) %MON dynstat_wvel_max             =   4.2666524350387E-03
(PID.TID 0000.0001) %MON dynstat_wvel_min             =  -2.5843883669685E-03
(PID.TID 0000.0001) %MON dynstat_wvel_mean            =   7.8098224216540E-08
(PID.TID 0000.0001) %MON dynstat_wvel_sd              =   3.3765329388861E-05
(PID.TID 0000.0001) %MON dynstat_wvel_del2            =   5.3883165249283E-08
(PID.TID 0000.0001) %MON dynstat_theta_max            =   3.2645751770719E+01
(PID.TID 0000.0001) %MON dynstat_theta_min            =  -2.0422968448894E+00
(PID.TID 0000.0001) %MON dynstat_theta_mean           =   3.5905605614227E+00
(PID.TID 0000.0001) %MON dynstat_theta_sd             =   4.4364396006009E+00
(PID.TID 0000.0001) %MON dynstat_theta_del2           =   1.0575380137412E-04
(PID.TID 0000.0001) %MON dynstat_salt_max             =   4.0711527148875E+01
(PID.TID 0000.0001) %MON dynstat_salt_min             =   1.8825552981821E+01
(PID.TID 0000.0001) %MON dynstat_salt_mean            =   3.4725627928176E+01
(PID.TID 0000.0001) %MON dynstat_salt_sd              =   3.7716223629616E-01
(PID.TID 0000.0001) %MON dynstat_salt_del2            =   2.6862461567731E-05
(PID.TID 0000.0001) %MON dynstat_sst_max              =   3.2607671818285E+01
(PID.TID 0000.0001) %MON dynstat_sst_min              =  -1.9477655671615E+00
(PID.TID 0000.0001) %MON dynstat_sst_mean             =   1.8481799309200E+01
(PID.TID 0000.0001) %MON dynstat_sst_sd               =   1.0108118776606E+01
(PID.TID 0000.0001) %MON dynstat_sst_del2             =   8.6811878975551E-04
(PID.TID 0000.0001) %MON dynstat_sss_max              =   3.9419776671572E+01
(PID.TID 0000.0001) %MON dynstat_sss_min              =   1.8825552981821E+01
(PID.TID 0000.0001) %MON dynstat_sss_mean             =   3.4683883363525E+01
(PID.TID 0000.0001) %MON dynstat_sss_sd               =   1.1251880377743E+00
(PID.TID 0000.0001) %MON dynstat_sss_del2             =   4.8288259822061E-04
(PID.TID 0000.0001) %MON forcing_qnet_max             =   1.4296909179688E+03
(PID.TID 0000.0001) %MON forcing_qnet_min             =  -1.2132906494141E+03
(PID.TID 0000.0001) %MON forcing_qnet_mean            =   2.3646240968606E+01
(PID.TID 0000.0001) %MON forcing_qnet_sd              =   2.0968988513497E+02
(PID.TID 0000.0001) %MON forcing_qnet_del2            =   5.4092637807790E-01
(PID.TID 0000.0001) %MON forcing_qsw_max              =   0.0000000000000E+00
(PID.TID 0000.0001) %MON forcing_qsw_min              =  -4.1147261336144E+02
(PID.TID 0000.0001) %MON forcing_qsw_mean             =  -6.2127478782770E+01
(PID.TID 0000.0001) %MON forcing_qsw_sd               =   1.0851295319315E+02
(PID.TID 0000.0001) %MON forcing_qsw_del2             =   1.7445191140088E-01
(PID.TID 0000.0001) %MON forcing_empmr_max            =   4.0583023801446E-03
(PID.TID 0000.0001) %MON forcing_empmr_min            =  -6.9161579012871E-02
(PID.TID 0000.0001) %MON forcing_empmr_mean           =   1.3481892034218E-07
(PID.TID 0000.0001) %MON forcing_empmr_sd             =   3.4559588067865E-04
(PID.TID 0000.0001) %MON forcing_empmr_del2           =   3.0833512104683E-06
(PID.TID 0000.0001) %MON forcing_fu_max               =   1.0267097353935E+00
(PID.TID 0000.0001) %MON forcing_fu_min               =  -7.1586933732033E-01
(PID.TID 0000.0001) %MON forcing_fu_mean              =   1.1632924849096E-02
(PID.TID 0000.0001) %MON forcing_fu_sd                =   1.0327309148910E-01
(PID.TID 0000.0001) %MON forcing_fu_del2              =   1.4133062070330E-04
(PID.TID 0000.0001) %MON forcing_fv_max               =   8.4005770087242E-01
(PID.TID 0000.0001) %MON forcing_fv_min               =  -6.9616973583407E-01
(PID.TID 0000.0001) %MON forcing_fv_mean              =  -8.0392699946336E-03
(PID.TID 0000.0001) %MON forcing_fv_sd                =   1.0272319027185E-01
(PID.TID 0000.0001) %MON forcing_fv_del2              =   1.1631791628596E-04
(PID.TID 0000.0001) %MON trAdv_CFL_u_max              =   2.1585804252050E-02
(PID.TID 0000.0001) %MON trAdv_CFL_v_max              =   2.5652604183717E-02
(PID.TID 0000.0001) %MON trAdv_CFL_w_max              =   8.6809563478387E-02
(PID.TID 0000.0001) %MON advcfl_uvel_max              =   2.2691369719420E-02
(PID.TID 0000.0001) %MON advcfl_vvel_max              =   2.4810548116347E-02
(PID.TID 0000.0001) %MON advcfl_wvel_max              =   9.0436680346415E-02
(PID.TID 0000.0001) %MON advcfl_W_hf_max              =   9.5720905622621E-02
(PID.TID 0000.0001) %MON pe_b_mean                    =   6.4985397217338E-04
(PID.TID 0000.0001) %MON ke_max                       =   1.1497062348186E+00
(PID.TID 0000.0001) %MON ke_mean                      =   4.8106975746928E-04
(PID.TID 0000.0001) %MON ke_vol                       =   1.3349969924919E+18
(PID.TID 0000.0001) %MON vort_r_min                   =  -4.0141887402702E-05
(PID.TID 0000.0001) %MON vort_r_max                   =   4.0293529661518E-05
(PID.TID 0000.0001) %MON vort_a_mean                  =  -1.9727864647440E-05
(PID.TID 0000.0001) %MON vort_a_sd                    =   7.4543351830776E-05
(PID.TID 0000.0001) %MON vort_p_mean                  =  -2.1760544651395E-05
(PID.TID 0000.0001) %MON vort_p_sd                    =   9.7245492444870E-05
(PID.TID 0000.0001) %MON surfExpan_theta_mean         =  -2.7502923280207E-06
(PID.TID 0000.0001) %MON surfExpan_salt_mean          =  -2.6073112392930E-07
(PID.TID 0000.0001) // =======================================================
(PID.TID 0000.0001) // End MONITOR dynamic field statistics
(PID.TID 0000.0001) // =======================================================
 cg2d: Sum(rhs),rhsMax =   7.81024156782681E+01  2.99854332233303E-01
 cg2d: Sum(rhs),rhsMax =   7.80893359586979E+01  3.00150106982883E-01
 cg2d: Sum(rhs),rhsMax =   7.80625663282841E+01  3.00502557795187E-01
 cg2d: Sum(rhs),rhsMax =   7.80243647659412E+01  3.00898371974439E-01
 cg2d: Sum(rhs),rhsMax =   7.79714320190424E+01  3.01322004648450E-01
 cg2d: Sum(rhs),rhsMax =   7.79201579082812E+01  3.01757344430047E-01
 cg2d: Sum(rhs),rhsMax =   7.78750850546490E+01  3.02189027179810E-01
 cg2d: Sum(rhs),rhsMax =   7.78221486646177E+01  3.02602955000421E-01
(PID.TID 0000.0001)      cg2d_init_res =   3.35997605010699E-01
(PID.TID 0000.0001)      cg2d_iters(min,last) =      -1      32
(PID.TID 0000.0001)      cg2d_last_res =   2.26747517738674E-05
(PID.TID 0000.0001) // =======================================================
(PID.TID 0000.0001) // Begin MONITOR dynamic field statistics
(PID.TID 0000.0001) // =======================================================
(PID.TID 0000.0001) %MON time_tsnumber                =                    72
(PID.TID 0000.0001) %MON time_secondsf                =   6.4800000000000E+04
(PID.TID 0000.0001) %MON dynstat_eta_max              =   1.0813381551742E+00
(PID.TID 0000.0001) %MON dynstat_eta_min              =  -3.1016532679168E+00
(PID.TID 0000.0001) %MON dynstat_eta_mean             =  -2.4617631097133E-03
(PID.TID 0000.0001) %MON dynstat_eta_sd               =   6.9728036468624E-01
(PID.TID 0000.0001) %MON dynstat_eta_del2             =   8.5478344389436E-05
(PID.TID 0000.0001) %MON dynstat_uvel_max             =   9.7684699394478E-01
(PID.TID 0000.0001) %MON dynstat_uvel_min             =  -1.3819708279457E+00
(PID.TID 0000.0001) %MON dynstat_uvel_mean            =   1.4044038267896E-03
(PID.TID 0000.0001) %MON dynstat_uvel_sd              =   2.1510884810552E-02
(PID.TID 0000.0001) %MON dynstat_uvel_del2            =   1.3324905369565E-05
(PID.TID 0000.0001) %MON dynstat_vvel_max             =   1.3640651724186E+00
(PID.TID 0000.0001) %MON dynstat_vvel_min             =  -9.1837936700274E-01
(PID.TID 0000.0001) %MON dynstat_vvel_mean            =   1.6885373641893E-03
(PID.TID 0000.0001) %MON dynstat_vvel_sd              =   2.2791008822456E-02
(PID.TID 0000.0001) %MON dynstat_vvel_del2            =   1.3443468843994E-05
(PID.TID 0000.0001) %MON dynstat_wvel_max             =   4.1416161744802E-03
(PID.TID 0000.0001) %MON dynstat_wvel_min             =  -2.5256559077113E-03
(PID.TID 0000.0001) %MON dynstat_wvel_mean            =   5.8389889476369E-08
(PID.TID 0000.0001) %MON dynstat_wvel_sd              =   3.2934522977964E-05
(PID.TID 0000.0001) %MON dynstat_wvel_del2            =   5.3138632180904E-08
(PID.TID 0000.0001) %MON dynstat_theta_max            =   3.2639708358994E+01
(PID.TID 0000.0001) %MON dynstat_theta_min            =  -2.0422908983798E+00
(PID.TID 0000.0001) %MON dynstat_theta_mean           =   3.5905531388011E+00
(PID.TID 0000.0001) %MON dynstat_theta_sd             =   4.4363995465658E+00
(PID.TID 0000.0001) %MON dynstat_theta_del2           =   1.0522998056533E-04
(PID.TID 0000.0001) %MON dynstat_salt_max             =   4.0711528278685E+01
(PID.TID 0000.0001) %MON dynstat_salt_min             =   1.8818447101945E+01
(PID.TID 0000.0001) %MON dynstat_salt_mean            =   3.4725622395678E+01
(PID.TID 0000.0001) %MON dynstat_salt_sd              =   3.7713956120264E-01
(PID.TID 0000.0001) %MON dynstat_salt_del2            =   2.6872685137086E-05
(PID.TID 0000.0001) %MON dynstat_sst_max              =   3.2586567632459E+01
(PID.TID 0000.0001) %MON dynstat_sst_min              =  -1.9470373404570E+00
(PID.TID 0000.0001) %MON dynstat_sst_mean             =   1.8482035256049E+01
(PID.TID 0000.0001) %MON dynstat_sst_sd               =   1.0108901788549E+01
(PID.TID 0000.0001) %MON dynstat_sst_del2             =   8.6542886557905E-04
(PID.TID 0000.0001) %MON dynstat_sss_max              =   3.9395354492987E+01
(PID.TID 0000.0001) %MON dynstat_sss_min              =   1.8818447101945E+01
(PID.TID 0000.0001) %MON dynstat_sss_mean             =   3.4684723481388E+01
(PID.TID 0000.0001) %MON dynstat_sss_sd               =   1.1262469886865E+00
(PID.TID 0000.0001) %MON dynstat_sss_del2             =   4.9562374312575E-04
(PID.TID 0000.0001) %MON forcing_qnet_max             =   1.5918767089844E+03
(PID.TID 0000.0001) %MON forcing_qnet_min             =  -1.3723691406250E+03
(PID.TID 0000.0001) %MON forcing_qnet_mean            =   1.0452514560524E+01
(PID.TID 0000.0001) %MON forcing_qnet_sd              =   2.1987258123220E+02
(PID.TID 0000.0001) %MON forcing_qnet_del2            =   5.1337174281672E-01
(PID.TID 0000.0001) %MON forcing_qsw_max              =   0.0000000000000E+00
(PID.TID 0000.0001) %MON forcing_qsw_min              =  -4.4360513880066E+02
(PID.TID 0000.0001) %MON forcing_qsw_mean             =  -6.7870130177333E+01
(PID.TID 0000.0001) %MON forcing_qsw_sd               =   1.1560436223871E+02
(PID.TID 0000.0001) %MON forcing_qsw_del2             =   1.7967635428571E-01
(PID.TID 0000.0001) %MON forcing_empmr_max            =   4.1556456126273E-03
(PID.TID 0000.0001) %MON forcing_empmr_min            =  -9.4559416174889E-02
(PID.TID 0000.0001) %MON forcing_empmr_mean           =  -1.9145654997264E-06
(PID.TID 0000.0001) %MON forcing_empmr_sd             =   3.9211427508711E-04
(PID.TID 0000.0001) %MON forcing_empmr_del2           =   2.6153559533057E-06
(PID.TID 0000.0001) %MON forcing_fu_max               =   9.6946364641190E-01
(PID.TID 0000.0001) %MON forcing_fu_min               =  -6.8958690762520E-01
(PID.TID 0000.0001) %MON forcing_fu_mean              =   1.1157378134840E-02
(PID.TID 0000.0001) %MON forcing_fu_sd                =   1.0185679540288E-01
(PID.TID 0000.0001) %MON forcing_fu_del2              =   1.3911075036723E-04
(PID.TID 0000.0001) %MON forcing_fv_max               =   9.2988011240959E-01
(PID.TID 0000.0001) %MON forcing_fv_min               =  -7.5191609117346E-01
(PID.TID 0000.0001) %MON forcing_fv_mean              =  -8.0962490165753E-03
(PID.TID 0000.0001) %MON forcing_fv_sd                =   1.0236414097787E-01
(PID.TID 0000.0001) %MON forcing_fv_del2              =   1.1538213382583E-04
(PID.TID 0000.0001) %MON trAdv_CFL_u_max              =   2.1533937526538E-02
(PID.TID 0000.0001) %MON trAdv_CFL_v_max              =   2.5063300781713E-02
(PID.TID 0000.0001) %MON trAdv_CFL_w_max              =   9.8385042861603E-02
(PID.TID 0000.0001) %MON advcfl_uvel_max              =   2.2640092329378E-02
(PID.TID 0000.0001) %MON advcfl_vvel_max              =   2.4213227988459E-02
(PID.TID 0000.0001) %MON advcfl_wvel_max              =   1.0244591990961E-01
(PID.TID 0000.0001) %MON advcfl_W_hf_max              =   1.0796141550002E-01
(PID.TID 0000.0001) %MON pe_b_mean                    =   6.3955640070207E-04
(PID.TID 0000.0001) %MON ke_max                       =   1.1100471498301E+00
(PID.TID 0000.0001) %MON ke_mean                      =   4.7591203133301E-04
(PID.TID 0000.0001) %MON ke_vol                       =   1.3349969949945E+18
(PID.TID 0000.0001) %MON vort_r_min                   =  -4.0462070120013E-05
(PID.TID 0000.0001) %MON vort_r_max                   =   3.9953117882844E-05
(PID.TID 0000.0001) %MON vort_a_mean                  =  -1.9727864647440E-05
(PID.TID 0000.0001) %MON vort_a_sd                    =   7.4543325120359E-05
(PID.TID 0000.0001) %MON vort_p_mean                  =  -2.1760544306742E-05
(PID.TID 0000.0001) %MON vort_p_sd                    =   9.7245731561325E-05
(PID.TID 0000.0001) %MON surfExpan_theta_mean         =  -2.3888582476512E-06
(PID.TID 0000.0001) %MON surfExpan_salt_mean          =  -1.5831952137354E-07
(PID.TID 0000.0001) // =======================================================
(PID.TID 0000.0001) // End MONITOR dynamic field statistics
(PID.TID 0000.0001) // =======================================================
 cg2d: Sum(rhs),rhsMax =   7.77612702169458E+01  3.02986822701122E-01
 cg2d: Sum(rhs),rhsMax =   7.76919991061291E+01  3.03330440212347E-01
 cg2d: Sum(rhs),rhsMax =   7.76353720509656E+01  3.03629455700803E-01
 cg2d: Sum(rhs),rhsMax =   7.75668582430062E+01  3.03922861639612E-01
 cg2d: Sum(rhs),rhsMax =   7.74893567259430E+01  3.04159361755146E-01
 cg2d: Sum(rhs),rhsMax =   7.73983728327014E+01  3.04334863199900E-01
 cg2d: Sum(rhs),rhsMax =   7.73127128749050E+01  3.04447512439164E-01
 cg2d: Sum(rhs),rhsMax =   7.72265364961396E+01  3.04495707327141E-01
(PID.TID 0000.0001)      cg2d_init_res =   3.16878995000605E-01
(PID.TID 0000.0001)      cg2d_iters(min,last) =      -1      31
(PID.TID 0000.0001)      cg2d_last_res =   2.15899747256137E-05
(PID.TID 0000.0001) // =======================================================
(PID.TID 0000.0001) // Begin MONITOR dynamic field statistics
(PID.TID 0000.0001) // =======================================================
(PID.TID 0000.0001) %MON time_tsnumber                =                    80
(PID.TID 0000.0001) %MON time_secondsf                =   7.2000000000000E+04
(PID.TID 0000.0001) %MON dynstat_eta_max              =   1.0785534696553E+00
(PID.TID 0000.0001) %MON dynstat_eta_min              =  -3.1287514191474E+00
(PID.TID 0000.0001) %MON dynstat_eta_mean             =  -2.4429219945653E-03
(PID.TID 0000.0001) %MON dynstat_eta_sd               =   6.9259246142926E-01
(PID.TID 0000.0001) %MON dynstat_eta_del2             =   8.3600449869156E-05
(PID.TID 0000.0001) %MON dynstat_uvel_max             =   9.2829761637871E-01
(PID.TID 0000.0001) %MON dynstat_uvel_min             =  -1.3426894971857E+00
(PID.TID 0000.0001) %MON dynstat_uvel_mean            =   1.1489274668050E-03
(PID.TID 0000.0001) %MON dynstat_uvel_sd              =   2.1332269244372E-02
(PID.TID 0000.0001) %MON dynstat_uvel_del2            =   1.3285083253878E-05
(PID.TID 0000.0001) %MON dynstat_vvel_max             =   1.3380516192879E+00
(PID.TID 0000.0001) %MON dynstat_vvel_min             =  -9.1468926358318E-01
(PID.TID 0000.0001) %MON dynstat_vvel_mean            =   1.6964156013021E-03
(PID.TID 0000.0001) %MON dynstat_vvel_sd              =   2.2649961853729E-02
(PID.TID 0000.0001) %MON dynstat_vvel_del2            =   1.3194240707274E-05
(PID.TID 0000.0001) %MON dynstat_wvel_max             =   3.7833852990670E-03
(PID.TID 0000.0001) %MON dynstat_wvel_min             =  -2.3605737625563E-03
(PID.TID 0000.0001) %MON dynstat_wvel_mean            =   3.6375175957875E-08
(PID.TID 0000.0001) %MON dynstat_wvel_sd              =   3.2311726511485E-05
(PID.TID 0000.0001) %MON dynstat_wvel_del2            =   5.2180427643041E-08
(PID.TID 0000.0001) %MON dynstat_theta_max            =   3.2631618476984E+01
(PID.TID 0000.0001) %MON dynstat_theta_min            =  -2.0422878892612E+00
(PID.TID 0000.0001) %MON dynstat_theta_mean           =   3.5905514689287E+00
(PID.TID 0000.0001) %MON dynstat_theta_sd             =   4.4363893742214E+00
(PID.TID 0000.0001) %MON dynstat_theta_del2           =   1.0474161817009E-04
(PID.TID 0000.0001) %MON dynstat_salt_max             =   4.0711529255864E+01
(PID.TID 0000.0001) %MON dynstat_salt_min             =   1.8773403048576E+01
(PID.TID 0000.0001) %MON dynstat_salt_mean            =   3.4725617645522E+01
(PID.TID 0000.0001) %MON dynstat_salt_sd              =   3.7712179557788E-01
(PID.TID 0000.0001) %MON dynstat_salt_del2            =   2.6794906673788E-05
(PID.TID 0000.0001) %MON dynstat_sst_max              =   3.2565343976100E+01
(PID.TID 0000.0001) %MON dynstat_sst_min              =  -1.9453445399858E+00
(PID.TID 0000.0001) %MON dynstat_sst_mean             =   1.8483621436590E+01
(PID.TID 0000.0001) %MON dynstat_sst_sd               =   1.0111003496096E+01
(PID.TID 0000.0001) %MON dynstat_sst_del2             =   8.6332569990762E-04
(PID.TID 0000.0001) %MON dynstat_sss_max              =   3.9372216855162E+01
(PID.TID 0000.0001) %MON dynstat_sss_min              =   1.8773403048576E+01
(PID.TID 0000.0001) %MON dynstat_sss_mean             =   3.4685557016085E+01
(PID.TID 0000.0001) %MON dynstat_sss_sd               =   1.1273885189841E+00
(PID.TID 0000.0001) %MON dynstat_sss_del2             =   5.0110043300820E-04
(PID.TID 0000.0001) %MON forcing_qnet_max             =   2.6241762695312E+03
(PID.TID 0000.0001) %MON forcing_qnet_min             =  -1.2879883973280E+03
(PID.TID 0000.0001) %MON forcing_qnet_mean            =  -6.5349296815114E-01
(PID.TID 0000.0001) %MON forcing_qnet_sd              =   2.1162157390442E+02
(PID.TID 0000.0001) %MON forcing_qnet_del2            =   5.3299916335854E-01
(PID.TID 0000.0001) %MON forcing_qsw_max              =   0.0000000000000E+00
(PID.TID 0000.0001) %MON forcing_qsw_min              =  -4.3875916656144E+02
(PID.TID 0000.0001) %MON forcing_qsw_mean             =  -7.4497446991526E+01
(PID.TID 0000.0001) %MON forcing_qsw_sd               =   1.1315944950371E+02
(PID.TID 0000.0001) %MON forcing_qsw_del2             =   1.7763564479674E-01
(PID.TID 0000.0001) %MON forcing_empmr_max            =   4.2088287882507E-03
(PID.TID 0000.0001) %MON forcing_empmr_min            =  -1.0973101854324E-01
(PID.TID 0000.0001) %MON forcing_empmr_mean           =  -3.1167656423645E-06
(PID.TID 0000.0001) %MON forcing_empmr_sd             =   4.4162623045645E-04
(PID.TID 0000.0001) %MON forcing_empmr_del2           =   2.7613571263823E-06
(PID.TID 0000.0001) %MON forcing_fu_max               =   9.1130900382996E-01
(PID.TID 0000.0001) %MON forcing_fu_min               =  -6.8869918584824E-01
(PID.TID 0000.0001) %MON forcing_fu_mean              =   1.0829145161779E-02
(PID.TID 0000.0001) %MON forcing_fu_sd                =   1.0003632327405E-01
(PID.TID 0000.0001) %MON forcing_fu_del2              =   1.3604744072615E-04
(PID.TID 0000.0001) %MON forcing_fv_max               =   9.7171914577484E-01
(PID.TID 0000.0001) %MON forcing_fv_min               =  -7.6220746126522E-01
(PID.TID 0000.0001) %MON forcing_fv_mean              =  -8.5874780292658E-03
(PID.TID 0000.0001) %MON forcing_fv_sd                =   1.0187680403453E-01
(PID.TID 0000.0001) %MON forcing_fv_del2              =   1.1412910965986E-04
(PID.TID 0000.0001) %MON trAdv_CFL_u_max              =   2.2368500315529E-02
(PID.TID 0000.0001) %MON trAdv_CFL_v_max              =   2.4350220675736E-02
(PID.TID 0000.0001) %MON trAdv_CFL_w_max              =   1.1335114983317E-01
(PID.TID 0000.0001) %MON advcfl_uvel_max              =   2.1996567200451E-02
(PID.TID 0000.0001) %MON advcfl_vvel_max              =   2.3751626068178E-02
(PID.TID 0000.0001) %MON advcfl_wvel_max              =   1.1804837500925E-01
(PID.TID 0000.0001) %MON advcfl_W_hf_max              =   1.2447061727464E-01
(PID.TID 0000.0001) %MON pe_b_mean                    =   6.3098565554965E-04
(PID.TID 0000.0001) %MON ke_max                       =   1.0623147423143E+00
(PID.TID 0000.0001) %MON ke_mean                      =   4.6883006168008E-04
(PID.TID 0000.0001) %MON ke_vol                       =   1.3349970013634E+18
(PID.TID 0000.0001) %MON vort_r_min                   =  -3.9363481811600E-05
(PID.TID 0000.0001) %MON vort_r_max                   =   4.0007387980315E-05
(PID.TID 0000.0001) %MON vort_a_mean                  =  -1.9727864647440E-05
(PID.TID 0000.0001) %MON vort_a_sd                    =   7.4543282762158E-05
(PID.TID 0000.0001) %MON vort_p_mean                  =  -2.1760543809432E-05
(PID.TID 0000.0001) %MON vort_p_sd                    =   9.7245841910023E-05
(PID.TID 0000.0001) %MON surfExpan_theta_mean         =  -2.0862775875414E-06
(PID.TID 0000.0001) %MON surfExpan_salt_mean          =  -8.5066654863648E-08
(PID.TID 0000.0001) // =======================================================
(PID.TID 0000.0001) // End MONITOR dynamic field statistics
(PID.TID 0000.0001) // =======================================================
 cg2d: Sum(rhs),rhsMax =   7.71162525349603E+01  3.04479084391997E-01
 cg2d: Sum(rhs),rhsMax =   7.70284562542270E+01  3.04397547248874E-01
 cg2d: Sum(rhs),rhsMax =   7.69240661460589E+01  3.04251326535330E-01
 cg2d: Sum(rhs),rhsMax =   7.68215949393863E+01  3.04041088545931E-01
 cg2d: Sum(rhs),rhsMax =   7.67140613958925E+01  3.03767688511191E-01
 cg2d: Sum(rhs),rhsMax =   7.66000019975604E+01  3.03432760881513E-01
 cg2d: Sum(rhs),rhsMax =   7.64990756163348E+01  3.03037925119501E-01
 cg2d: Sum(rhs),rhsMax =   7.63944717472381E+01  3.02585590985166E-01
(PID.TID 0000.0001)      cg2d_init_res =   2.92934514759740E-01
(PID.TID 0000.0001)      cg2d_iters(min,last) =      -1      31
(PID.TID 0000.0001)      cg2d_last_res =   2.57696874771035E-05
(PID.TID 0000.0001) // =======================================================
(PID.TID 0000.0001) // Begin MONITOR dynamic field statistics
(PID.TID 0000.0001) // =======================================================
(PID.TID 0000.0001) %MON time_tsnumber                =                    88
(PID.TID 0000.0001) %MON time_secondsf                =   7.9200000000000E+04
(PID.TID 0000.0001) %MON dynstat_eta_max              =   1.0830852605437E+00
(PID.TID 0000.0001) %MON dynstat_eta_min              =  -3.0395572383632E+00
(PID.TID 0000.0001) %MON dynstat_eta_mean             =  -2.4166011291191E-03
(PID.TID 0000.0001) %MON dynstat_eta_sd               =   6.8884101488114E-01
(PID.TID 0000.0001) %MON dynstat_eta_del2             =   8.2634718890449E-05
(PID.TID 0000.0001) %MON dynstat_uvel_max             =   9.7191678840276E-01
(PID.TID 0000.0001) %MON dynstat_uvel_min             =  -1.2778413058431E+00
(PID.TID 0000.0001) %MON dynstat_uvel_mean            =   9.4620408594879E-04
(PID.TID 0000.0001) %MON dynstat_uvel_sd              =   2.1135357585758E-02
(PID.TID 0000.0001) %MON dynstat_uvel_del2            =   1.3214896240988E-05
(PID.TID 0000.0001) %MON dynstat_vvel_max             =   1.3327674552553E+00
(PID.TID 0000.0001) %MON dynstat_vvel_min             =  -9.0979196329007E-01
(PID.TID 0000.0001) %MON dynstat_vvel_mean            =   1.6386321710570E-03
(PID.TID 0000.0001) %MON dynstat_vvel_sd              =   2.2457906577801E-02
(PID.TID 0000.0001) %MON dynstat_vvel_del2            =   1.2936833937552E-05
(PID.TID 0000.0001) %MON dynstat_wvel_max             =   3.9326376742534E-03
(PID.TID 0000.0001) %MON dynstat_wvel_min             =  -2.0885415813507E-03
(PID.TID 0000.0001) %MON dynstat_wvel_mean            =   3.2942184138708E-08
(PID.TID 0000.0001) %MON dynstat_wvel_sd              =   3.1729193832045E-05
(PID.TID 0000.0001) %MON dynstat_wvel_del2            =   5.1009467131702E-08
(PID.TID 0000.0001) %MON dynstat_theta_max            =   3.2618054944772E+01
(PID.TID 0000.0001) %MON dynstat_theta_min            =  -2.0422907534451E+00
(PID.TID 0000.0001) %MON dynstat_theta_mean           =   3.5905545676258E+00
(PID.TID 0000.0001) %MON dynstat_theta_sd             =   4.4364043256214E+00
(PID.TID 0000.0001) %MON dynstat_theta_del2           =   1.0427734853070E-04
(PID.TID 0000.0001) %MON dynstat_salt_max             =   4.0711530222091E+01
(PID.TID 0000.0001) %MON dynstat_salt_min             =   1.7958407617587E+01
(PID.TID 0000.0001) %MON dynstat_salt_mean            =   3.4725613579216E+01
(PID.TID 0000.0001) %MON dynstat_salt_sd              =   3.7710798109646E-01
(PID.TID 0000.0001) %MON dynstat_salt_del2            =   2.6717418567975E-05
(PID.TID 0000.0001) %MON dynstat_sst_max              =   3.2546616700919E+01
(PID.TID 0000.0001) %MON dynstat_sst_min              =  -1.9421802127465E+00
(PID.TID 0000.0001) %MON dynstat_sst_mean             =   1.8485256527107E+01
(PID.TID 0000.0001) %MON dynstat_sst_sd               =   1.0113680581935E+01
(PID.TID 0000.0001) %MON dynstat_sst_del2             =   8.6090844624715E-04
(PID.TID 0000.0001) %MON dynstat_sss_max              =   3.9350926842526E+01
(PID.TID 0000.0001) %MON dynstat_sss_min              =   1.7958407617587E+01
(PID.TID 0000.0001) %MON dynstat_sss_mean             =   3.4686275717193E+01
(PID.TID 0000.0001) %MON dynstat_sss_sd               =   1.1285396529733E+00
(PID.TID 0000.0001) %MON dynstat_sss_del2             =   5.0685515306662E-04
(PID.TID 0000.0001) %MON forcing_qnet_max             =   2.7845175781250E+03
(PID.TID 0000.0001) %MON forcing_qnet_min             =  -1.4462954459103E+03
(PID.TID 0000.0001) %MON forcing_qnet_mean            =  -1.0792671245895E+01
(PID.TID 0000.0001) %MON forcing_qnet_sd              =   2.0721082675776E+02
(PID.TID 0000.0001) %MON forcing_qnet_del2            =   4.9625228033851E-01
(PID.TID 0000.0001) %MON forcing_qsw_max              =   0.0000000000000E+00
(PID.TID 0000.0001) %MON forcing_qsw_min              =  -4.3038970167325E+02
(PID.TID 0000.0001) %MON forcing_qsw_mean             =  -8.0181957941046E+01
(PID.TID 0000.0001) %MON forcing_qsw_sd               =   1.1550060478097E+02
(PID.TID 0000.0001) %MON forcing_qsw_del2             =   1.8132946833295E-01
(PID.TID 0000.0001) %MON forcing_empmr_max            =   5.2594672888517E-03
(PID.TID 0000.0001) %MON forcing_empmr_min            =  -1.1447181552649E-01
(PID.TID 0000.0001) %MON forcing_empmr_mean           =  -3.7832379349027E-06
(PID.TID 0000.0001) %MON forcing_empmr_sd             =   4.5782160753801E-04
(PID.TID 0000.0001) %MON forcing_empmr_del2           =   2.8516702783350E-06
(PID.TID 0000.0001) %MON forcing_fu_max               =   8.3761772513390E-01
(PID.TID 0000.0001) %MON forcing_fu_min               =  -6.4126896858215E-01
(PID.TID 0000.0001) %MON forcing_fu_mean              =   1.0583545937668E-02
(PID.TID 0000.0001) %MON forcing_fu_sd                =   9.8498121618129E-02
(PID.TID 0000.0001) %MON forcing_fu_del2              =   1.3302570572407E-04
(PID.TID 0000.0001) %MON forcing_fv_max               =   1.0106887817383E+00
(PID.TID 0000.0001) %MON forcing_fv_min               =  -7.5830110981650E-01
(PID.TID 0000.0001) %MON forcing_fv_mean              =  -9.1662055269649E-03
(PID.TID 0000.0001) %MON forcing_fv_sd                =   1.0183615424842E-01
(PID.TID 0000.0001) %MON forcing_fv_del2              =   1.1358210592082E-04
(PID.TID 0000.0001) %MON trAdv_CFL_u_max              =   2.3385361089416E-02
(PID.TID 0000.0001) %MON trAdv_CFL_v_max              =   2.3965530874737E-02
(PID.TID 0000.0001) %MON trAdv_CFL_w_max              =   1.2226046211732E-01
(PID.TID 0000.0001) %MON advcfl_uvel_max              =   2.2895544103208E-02
(PID.TID 0000.0001) %MON advcfl_vvel_max              =   2.3657827378818E-02
(PID.TID 0000.0001) %MON advcfl_wvel_max              =   1.2734056091265E-01
(PID.TID 0000.0001) %MON advcfl_W_hf_max              =   1.3433246046786E-01
(PID.TID 0000.0001) %MON pe_b_mean                    =   6.2416857704820E-04
(PID.TID 0000.0001) %MON ke_max                       =   1.0346897110694E+00
(PID.TID 0000.0001) %MON ke_mean                      =   4.6032282759997E-04
(PID.TID 0000.0001) %MON ke_vol                       =   1.3349970105779E+18
(PID.TID 0000.0001) %MON vort_r_min                   =  -3.7353648585414E-05
(PID.TID 0000.0001) %MON vort_r_max                   =   4.0531578579055E-05
(PID.TID 0000.0001) %MON vort_a_mean                  =  -1.9727864647440E-05
(PID.TID 0000.0001) %MON vort_a_sd                    =   7.4543231855064E-05
(PID.TID 0000.0001) %MON vort_p_mean                  =  -2.1760543285928E-05
(PID.TID 0000.0001) %MON vort_p_sd                    =   9.7245978149833E-05
(PID.TID 0000.0001) %MON surfExpan_theta_mean         =  -1.8326934909565E-06
(PID.TID 0000.0001) %MON surfExpan_salt_mean          =  -7.6477862212597E-08
(PID.TID 0000.0001) // =======================================================
(PID.TID 0000.0001) // End MONITOR dynamic field statistics
(PID.TID 0000.0001) // =======================================================
 cg2d: Sum(rhs),rhsMax =   7.63000069911263E+01  3.02079069317774E-01
 cg2d: Sum(rhs),rhsMax =   7.61960368954596E+01  3.01582511134860E-01
 cg2d: Sum(rhs),rhsMax =   7.60905723973381E+01  3.01100629110666E-01
 cg2d: Sum(rhs),rhsMax =   7.59971536841240E+01  3.00560745518164E-01
 cg2d: Sum(rhs),rhsMax =   7.58960441735389E+01  2.99967478803425E-01
 cg2d: Sum(rhs),rhsMax =   7.57912030456469E+01  2.99327508461734E-01
 cg2d: Sum(rhs),rhsMax =   7.57043530460409E+01  2.98647157112007E-01
 cg2d: Sum(rhs),rhsMax =   7.56145063707283E+01  2.97934521878133E-01
(PID.TID 0000.0001)      cg2d_init_res =   2.82045406229673E-01
(PID.TID 0000.0001)      cg2d_iters(min,last) =      -1      32
(PID.TID 0000.0001)      cg2d_last_res =   2.18919887702546E-05
(PID.TID 0000.0001) // =======================================================
(PID.TID 0000.0001) // Begin MONITOR dynamic field statistics
(PID.TID 0000.0001) // =======================================================
(PID.TID 0000.0001) %MON time_tsnumber                =                    96
(PID.TID 0000.0001) %MON time_secondsf                =   8.6400000000000E+04
(PID.TID 0000.0001) %MON dynstat_eta_max              =   1.0808174128587E+00
(PID.TID 0000.0001) %MON dynstat_eta_min              =  -2.9997507425604E+00
(PID.TID 0000.0001) %MON dynstat_eta_mean             =  -2.3919283332159E-03
(PID.TID 0000.0001) %MON dynstat_eta_sd               =   6.8555859514441E-01
(PID.TID 0000.0001) %MON dynstat_eta_del2             =   8.0701770524026E-05
(PID.TID 0000.0001) %MON dynstat_uvel_max             =   9.7656481473682E-01
(PID.TID 0000.0001) %MON dynstat_uvel_min             =  -1.2391964009083E+00
(PID.TID 0000.0001) %MON dynstat_uvel_mean            =   8.4760376205137E-04
(PID.TID 0000.0001) %MON dynstat_uvel_sd              =   2.0982295799644E-02
(PID.TID 0000.0001) %MON dynstat_uvel_del2            =   1.3084625741549E-05
(PID.TID 0000.0001) %MON dynstat_vvel_max             =   1.3229675264440E+00
(PID.TID 0000.0001) %MON dynstat_vvel_min             =  -9.0342104421835E-01
(PID.TID 0000.0001) %MON dynstat_vvel_mean            =   1.5205971515028E-03
(PID.TID 0000.0001) %MON dynstat_vvel_sd              =   2.2233840469490E-02
(PID.TID 0000.0001) %MON dynstat_vvel_del2            =   1.2659631288536E-05
(PID.TID 0000.0001) %MON dynstat_wvel_max             =   4.1160142573717E-03
(PID.TID 0000.0001) %MON dynstat_wvel_min             =  -1.9683237482412E-03
(PID.TID 0000.0001) %MON dynstat_wvel_mean            =   3.1885872603556E-08
(PID.TID 0000.0001) %MON dynstat_wvel_sd              =   3.1029657442583E-05
(PID.TID 0000.0001) %MON dynstat_wvel_del2            =   4.9676921339593E-08
(PID.TID 0000.0001) %MON dynstat_theta_max            =   3.2590728707404E+01
(PID.TID 0000.0001) %MON dynstat_theta_min            =  -2.0422861674194E+00
(PID.TID 0000.0001) %MON dynstat_theta_mean           =   3.5905632798847E+00
(PID.TID 0000.0001) %MON dynstat_theta_sd             =   4.4364482572607E+00
(PID.TID 0000.0001) %MON dynstat_theta_del2           =   1.0383614020850E-04
(PID.TID 0000.0001) %MON dynstat_salt_max             =   4.0711531364667E+01
(PID.TID 0000.0001) %MON dynstat_salt_min             =   1.6717207789683E+01
(PID.TID 0000.0001) %MON dynstat_salt_mean            =   3.4725610091335E+01
(PID.TID 0000.0001) %MON dynstat_salt_sd              =   3.7709629890075E-01
(PID.TID 0000.0001) %MON dynstat_salt_del2            =   2.6637198398325E-05
(PID.TID 0000.0001) %MON dynstat_sst_max              =   3.2537287820713E+01
(PID.TID 0000.0001) %MON dynstat_sst_min              =  -1.9402890176911E+00
(PID.TID 0000.0001) %MON dynstat_sst_mean             =   1.8486895011126E+01
(PID.TID 0000.0001) %MON dynstat_sst_sd               =   1.0116452622637E+01
(PID.TID 0000.0001) %MON dynstat_sst_del2             =   8.5879034941486E-04
(PID.TID 0000.0001) %MON dynstat_sss_max              =   3.9331312959111E+01
(PID.TID 0000.0001) %MON dynstat_sss_min              =   1.6717207789683E+01
(PID.TID 0000.0001) %MON dynstat_sss_mean             =   3.4686898373566E+01
(PID.TID 0000.0001) %MON dynstat_sss_sd               =   1.1296398253784E+00
(PID.TID 0000.0001) %MON dynstat_sss_del2             =   5.1225314677965E-04
(PID.TID 0000.0001) %MON forcing_qnet_max             =   1.8999603271484E+03
(PID.TID 0000.0001) %MON forcing_qnet_min             =  -1.2965018862309E+03
(PID.TID 0000.0001) %MON forcing_qnet_mean            =  -2.4795712450578E+01
(PID.TID 0000.0001) %MON forcing_qnet_sd              =   2.2113038078121E+02
(PID.TID 0000.0001) %MON forcing_qnet_del2            =   4.9272085053195E-01
(PID.TID 0000.0001) %MON forcing_qsw_max              =   0.0000000000000E+00
(PID.TID 0000.0001) %MON forcing_qsw_min              =  -4.2402518696852E+02
(PID.TID 0000.0001) %MON forcing_qsw_mean             =  -8.7783638924629E+01
(PID.TID 0000.0001) %MON forcing_qsw_sd               =   1.2143325810737E+02
(PID.TID 0000.0001) %MON forcing_qsw_del2             =   1.9117988015740E-01
(PID.TID 0000.0001) %MON forcing_empmr_max            =   4.9221492372453E-03
(PID.TID 0000.0001) %MON forcing_empmr_min            =  -1.0097257792950E-01
(PID.TID 0000.0001) %MON forcing_empmr_mean           =  -3.2495103030361E-06
(PID.TID 0000.0001) %MON forcing_empmr_sd             =   4.0557806397391E-04
(PID.TID 0000.0001) %MON forcing_empmr_del2           =   2.5124798266955E-06
(PID.TID 0000.0001) %MON forcing_fu_max               =   7.9084774851799E-01
(PID.TID 0000.0001) %MON forcing_fu_min               =  -6.4406415820122E-01
(PID.TID 0000.0001) %MON forcing_fu_mean              =   1.0141503651493E-02
(PID.TID 0000.0001) %MON forcing_fu_sd                =   9.7707056683997E-02
(PID.TID 0000.0001) %MON forcing_fu_del2              =   1.3089240581102E-04
(PID.TID 0000.0001) %MON forcing_fv_max               =   1.0638211965561E+00
(PID.TID 0000.0001) %MON forcing_fv_min               =  -7.5188602681804E-01
(PID.TID 0000.0001) %MON forcing_fv_mean              =  -9.4086527187392E-03
(PID.TID 0000.0001) %MON forcing_fv_sd                =   1.0150868543771E-01
(PID.TID 0000.0001) %MON forcing_fv_del2              =   1.1332017971916E-04
(PID.TID 0000.0001) %MON trAdv_CFL_u_max              =   2.3025260314418E-02
(PID.TID 0000.0001) %MON trAdv_CFL_v_max              =   2.3678937985447E-02
(PID.TID 0000.0001) %MON trAdv_CFL_w_max              =   1.2659009063947E-01
(PID.TID 0000.0001) %MON advcfl_uvel_max              =   2.3005038139318E-02
(PID.TID 0000.0001) %MON advcfl_vvel_max              =   2.3483869781619E-02
(PID.TID 0000.0001) %MON advcfl_wvel_max              =   1.3186583081632E-01
(PID.TID 0000.0001) %MON advcfl_W_hf_max              =   1.3919546332647E-01
(PID.TID 0000.0001) %MON pe_b_mean                    =   6.1823416873276E-04
(PID.TID 0000.0001) %MON ke_max                       =   1.0097624679580E+00
(PID.TID 0000.0001) %MON ke_mean                      =   4.5212044391736E-04
(PID.TID 0000.0001) %MON ke_vol                       =   1.3349970195783E+18
(PID.TID 0000.0001) %MON vort_r_min                   =  -3.5900536137867E-05
(PID.TID 0000.0001) %MON vort_r_max                   =   3.9325498574498E-05
(PID.TID 0000.0001) %MON vort_a_mean                  =  -1.9727864647440E-05
(PID.TID 0000.0001) %MON vort_a_sd                    =   7.4543178577975E-05
(PID.TID 0000.0001) %MON vort_p_mean                  =  -2.1760542865019E-05
(PID.TID 0000.0001) %MON vort_p_sd                    =   9.7246227875191E-05
(PID.TID 0000.0001) %MON surfExpan_theta_mean         =  -1.6684519004629E-06
(PID.TID 0000.0001) %MON surfExpan_salt_mean          =  -7.7722650178291E-08
(PID.TID 0000.0001) // =======================================================
(PID.TID 0000.0001) // End MONITOR dynamic field statistics
(PID.TID 0000.0001) // =======================================================
 cg2d: Sum(rhs),rhsMax =   7.55040420963691E+01  2.97198905370468E-01
