(PID.TID 0000.0001) 
(PID.TID 0000.0001) // ======================================================
(PID.TID 0000.0001) //                      MITgcm UV
(PID.TID 0000.0001) //                      =========
(PID.TID 0000.0001) // ======================================================
(PID.TID 0000.0001) // execution environment starting up...
(PID.TID 0000.0001) 
(PID.TID 0000.0001) // MITgcmUV version:  checkpoint66k
(PID.TID 0000.0001) // Build user:        dmenemen
(PID.TID 0000.0001) // Build host:        borgo113
(PID.TID 0000.0001) // Build date:        Thu Sep 28 12:32:49 EDT 2017
(PID.TID 0000.0001) 
(PID.TID 0000.0001) // =======================================================
(PID.TID 0000.0001) // Execution Environment parameter file "eedata"
(PID.TID 0000.0001) // =======================================================
(PID.TID 0000.0001) ># Example "eedata" file
(PID.TID 0000.0001) ># Lines beginning "#" are comments
(PID.TID 0000.0001) ># nTx - No. threads per process in X
(PID.TID 0000.0001) ># nTy - No. threads per process in Y
(PID.TID 0000.0001) > &EEPARMS
(PID.TID 0000.0001) > useCubedSphereExchange=.TRUE.,
(PID.TID 0000.0001) > nTx=1,
(PID.TID 0000.0001) > nTy=1,
(PID.TID 0000.0001) > &
(PID.TID 0000.0001) 
(PID.TID 0000.0001) // =======================================================
(PID.TID 0000.0001) // Computational Grid Specification ( see files "SIZE.h" )
(PID.TID 0000.0001) //                                  ( and "eedata"       )
(PID.TID 0000.0001) // =======================================================
(PID.TID 0000.0001)      nPx =   96 ; /* No. processes in X */
(PID.TID 0000.0001)      nPy =    1 ; /* No. processes in Y */
(PID.TID 0000.0001)      nSx =    1 ; /* No. tiles in X per process */
(PID.TID 0000.0001)      nSy =    1 ; /* No. tiles in Y per process */
(PID.TID 0000.0001)      sNx =   30 ; /* Tile size in X */
(PID.TID 0000.0001)      sNy =   30 ; /* Tile size in Y */
(PID.TID 0000.0001)      OLx =    4 ; /* Tile overlap distance in X */
(PID.TID 0000.0001)      OLy =    4 ; /* Tile overlap distance in Y */
(PID.TID 0000.0001)      nTx =    1 ; /* No. threads in X per process */
(PID.TID 0000.0001)      nTy =    1 ; /* No. threads in Y per process */
(PID.TID 0000.0001)       Nr =   50 ; /* No. levels in the vertical   */
(PID.TID 0000.0001)       Nx = 2880 ; /* Total domain size in X ( = nPx*nSx*sNx ) */
(PID.TID 0000.0001)       Ny =   30 ; /* Total domain size in Y ( = nPy*nSy*sNy ) */
(PID.TID 0000.0001)   nTiles =    1 ; /* Total no. tiles per process ( = nSx*nSy ) */
(PID.TID 0000.0001)   nProcs =   96 ; /* Total no. processes ( = nPx*nPy ) */
(PID.TID 0000.0001) nThreads =    1 ; /* Total no. threads per process ( = nTx*nTy ) */
(PID.TID 0000.0001) usingMPI =    T ; /* Flag used to control whether MPI is in use */
(PID.TID 0000.0001)                   /*  note: To execute a program with MPI calls */
(PID.TID 0000.0001)                   /*  it must be launched appropriately e.g     */
(PID.TID 0000.0001)                   /*  "mpirun -np 64 ......"                    */
(PID.TID 0000.0001) useCoupler=    F ;/* Flag used to control communications with   */
(PID.TID 0000.0001)                   /*  other model components, through a coupler */
(PID.TID 0000.0001) debugMode =    F ; /* print debug msg. (sequence of S/R calls)  */
(PID.TID 0000.0001) printMapIncludesZeros=    F ; /* print zeros in Std.Output maps */
(PID.TID 0000.0001) maxLengthPrt1D=   65 /* maxLength of 1D array printed to StdOut */
(PID.TID 0000.0001) 
(PID.TID 0000.0001) ======= Starting MPI parallel Run =========
(PID.TID 0000.0001)  My Processor Name (len:  8 ) = borgo113
(PID.TID 0000.0001)  Located at (  0,  0) on processor grid (0: 95,0:  0)
(PID.TID 0000.0001)  Origin at  (     1,     1) on global grid (1:  2880,1:    30)
(PID.TID 0000.0001)  North neighbor = processor 0000
(PID.TID 0000.0001)  South neighbor = processor 0000
(PID.TID 0000.0001)   East neighbor = processor 0001
(PID.TID 0000.0001)   West neighbor = processor 0095
(PID.TID 0000.0001) // ======================================================
(PID.TID 0000.0001) // Mapping of tiles to threads
(PID.TID 0000.0001) // ======================================================
(PID.TID 0000.0001) // -o- Thread   1, tiles (   1:   1,   1:   1)
(PID.TID 0000.0001) 
(PID.TID 0000.0001) W2_READPARMS: opening data.exch2
(PID.TID 0000.0001)  OPEN_COPY_DATA_FILE: opening file data.exch2
(PID.TID 0000.0001) // =======================================================
(PID.TID 0000.0001) // Parameter file "data.exch2"
(PID.TID 0000.0001) // =======================================================
(PID.TID 0000.0001) ># EXCH2 Package: Wrapper-2 User Choice
(PID.TID 0000.0001) >#--------------------
(PID.TID 0000.0001) >#  preDefTopol   :: pre-defined Topology selector:
(PID.TID 0000.0001) >#                :: = 0 : topology defined from processing "data.exch2";
(PID.TID 0000.0001) >#                :: = 1 : simple, single facet topology;
(PID.TID 0000.0001) >#                :: = 2 : customized topology (w2_set_myown_facets)
(PID.TID 0000.0001) >#                :: = 3 : 6-facet Cube (3 face-dims: nRed, nGreen, nBlue).
(PID.TID 0000.0001) >#  dimsFacets    :: facet pair of dimensions (n1x,n1y, n2x,n2y ...)
(PID.TID 0000.0001) >#  facetEdgeLink :: Face-Edge connectivity map:
(PID.TID 0000.0001) >#    facetEdgeLink(i,j)=XX.1 : face(j)-edge(i) (i=1,2,3,4 <==> N,S,E,W)
(PID.TID 0000.0001) >#    is connected to Northern edge of face "XX" ; similarly,
(PID.TID 0000.0001) >#    = XX.2 : to Southern.E, XX.3 = Eastern.E, XX.4 = Western.E of face "XX"
(PID.TID 0000.0001) >#  blankList     :: List of "blank" tiles
(PID.TID 0000.0001) >#  W2_mapIO      :: global map IO selector (-1 = old type ; 0 = 1 long line in X
(PID.TID 0000.0001) >#                :: 1 = compact, mostly in Y dir)
(PID.TID 0000.0001) >#  W2_printMsg   :: option for information messages printing
(PID.TID 0000.0001) >#                :: <0 : write to log file ; =0 : minimum print ;
(PID.TID 0000.0001) >#                :: =1 : no duplicated print ; =2 : all processes do print
(PID.TID 0000.0001) >#--------------------
(PID.TID 0000.0001) > &W2_EXCH2_PARM01
(PID.TID 0000.0001) ># W2_printMsg= 0,
(PID.TID 0000.0001) >  W2_mapIO   = 1,
(PID.TID 0000.0001) >#
(PID.TID 0000.0001) >  preDefTopol=0,
(PID.TID 0000.0001) >#-- 5 facets llc_120 topology (drop facet 6 and its connection):
(PID.TID 0000.0001) >  dimsFacets(1:10) = 90, 270, 90, 270, 90, 90, 270, 90, 270, 90,
(PID.TID 0000.0001) >  facetEdgeLink(1:4,1)= 3.4, 0. , 2.4, 5.1,
(PID.TID 0000.0001) >  facetEdgeLink(1:4,2)= 3.2, 0. , 4.2, 1.3,
(PID.TID 0000.0001) >  facetEdgeLink(1:4,3)= 5.4, 2.1, 4.4, 1.1,
(PID.TID 0000.0001) >  facetEdgeLink(1:4,4)= 5.2, 2.3, 0. , 3.3,
(PID.TID 0000.0001) >  facetEdgeLink(1:4,5)= 1.4, 4.1, 0. , 3.1,
(PID.TID 0000.0001) >#-- full 6 facets llc_120 topology (equivalent to default preDefTopol=3):
(PID.TID 0000.0001) ># dimsFacets(1:12) = 120, 360, 120, 360, 120, 120, 360, 120, 360, 120, 120, 120,
(PID.TID 0000.0001) ># facetEdgeLink(1:4,1)= 3.4, 6.1, 2.4, 5.1,
(PID.TID 0000.0001) ># facetEdgeLink(1:4,2)= 3.2, 6.3, 4.2, 1.3,
(PID.TID 0000.0001) ># facetEdgeLink(1:4,3)= 5.4, 2.1, 4.4, 1.1,
(PID.TID 0000.0001) ># facetEdgeLink(1:4,4)= 5.2, 2.3, 6.2, 3.3,
(PID.TID 0000.0001) ># facetEdgeLink(1:4,5)= 1.4, 4.1, 6.4, 3.1,
(PID.TID 0000.0001) ># facetEdgeLink(1:4,6)= 1.2, 4.3, 2.2, 5.3,
(PID.TID 0000.0001) >#
(PID.TID 0000.0001) >#90x30   nprocs = 36
(PID.TID 0000.0001) ># blankList(1:3)=1,10,11,
(PID.TID 0000.0001) >#30x90
(PID.TID 0000.0001) >#
(PID.TID 0000.0001) >#45x30   nprocs = 72
(PID.TID 0000.0001) ># blankList(1:6)=1,2,19,20,21,22
(PID.TID 0000.0001) >#30x45   nprocs = 68
(PID.TID 0000.0001) ># blankList(1:10)=2,3,19,20,21,35,51,60,69,78
(PID.TID 0000.0001) >#45x45   nprocs = 48
(PID.TID 0000.0001) ># blankList(1:4)=2,13,14,23
(PID.TID 0000.0001) >#30x30   nprocs = 96
(PID.TID 0000.0001) >  blankList(1:21)=1,2,3,5,6,28,29,30,31,32,33,49,50,52,53,72,81,90,99,108,117
(PID.TID 0000.0001) >#30x30   nprocs = 112
(PID.TID 0000.0001) ># blankList(1:5)=2,3,28,29,30
(PID.TID 0000.0001) >#15x30   nprocs = 192
(PID.TID 0000.0001) ># blankList(1:42)=1,2,3,4,5,6,9,10,11,12,55,56,57,58,59,60,61,62,63,64,65,66,
(PID.TID 0000.0001) >#            97,98,99,100,103,104,105,106,143,144,
(PID.TID 0000.0001) >#            161,162,179,180,197,198,215,216,233,234
(PID.TID 0000.0001) >#15x15   nprocs = 360
(PID.TID 0000.0001) ># blankList(1:108)=1,2,3,4,5,6,7,8,9,10,11,12,14,15,16,17,18,21,22,23,24,
(PID.TID 0000.0001) >#  65,71,75,76,90,95,96,101,102,109,110,111,112,113,114,115,116,117,118,119,
(PID.TID 0000.0001) >#  120,121,122,123,124,125,126,127,128,129,130,131,132,
(PID.TID 0000.0001) >#  188,189,190,193,194,195,196,199,
(PID.TID 0000.0001) >#  200,201,202,203,205,206,207,208,209,211,212,213,214,215,216,242,247,253,
(PID.TID 0000.0001) >#  267,268,269,270,287,288,305,306,323,324,341,342,359,360,362,376,377,378,
(PID.TID 0000.0001) >#  380,381,382,395,396,400,412,413,414,430,
(PID.TID 0000.0001) >#note: it seems that 8 of the followig 9 tiles could be added to 15x15 blank
(PID.TID 0000.0001) >#  list to reach 352=22*16 cores : 431 432 440 441 448 449 450 467 468
(PID.TID 0000.0001) > &
(PID.TID 0000.0001) 
(PID.TID 0000.0001) W2_READPARMS: finished reading data.exch2
(PID.TID 0000.0001) W2_useE2ioLayOut=    T ;/* T: use Exch2 glob IO map; F: use model default */
(PID.TID 0000.0001) W2_mapIO        =   1 ; /* select option for Exch2 global-IO map */
(PID.TID 0000.0001) W2_printMsg     =  -1 ; /* select option for printing information */
(PID.TID 0000.0001) ===== Start setting W2 TOPOLOGY:
(PID.TID 0000.0001)  write to log-file: w2_tile_topology.0000.log
(PID.TID 0000.0001) =====       setting W2 TOPOLOGY: Done
(PID.TID 0000.0001) 
(PID.TID 0000.0001)  INI_PARMS: opening model parameter file "data"
(PID.TID 0000.0001)  OPEN_COPY_DATA_FILE: opening file data
(PID.TID 0000.0001) // =======================================================
(PID.TID 0000.0001) // Parameter file "data"
(PID.TID 0000.0001) // =======================================================
(PID.TID 0000.0001) ># ====================
(PID.TID 0000.0001) ># | Model parameters |
(PID.TID 0000.0001) ># ====================
(PID.TID 0000.0001) >#
(PID.TID 0000.0001) ># Continuous equation parameters
(PID.TID 0000.0001) > &PARM01
(PID.TID 0000.0001) > tRef               = 3*23.,3*22.,21.,2*20.,19.,2*18.,17.,2*16.,15.,14.,13.,
(PID.TID 0000.0001) >                      12.,11.,2*9.,8.,7.,2*6.,2*5.,3*4.,3*3.,4*2.,12*1.,
(PID.TID 0000.0001) > sRef               = 50*34.5,
(PID.TID 0000.0001) > no_slip_sides  = .TRUE.,
(PID.TID 0000.0001) > no_slip_bottom = .TRUE.,
(PID.TID 0000.0001) >#
(PID.TID 0000.0001) > viscAr=0.5E-4,
(PID.TID 0000.0001) >#
(PID.TID 0000.0001) > viscAh=1.E0,
(PID.TID 0000.0001) > viscAhGrid=2.E-2,
(PID.TID 0000.0001) ># viscAh=2.0e4,
(PID.TID 0000.0001) >#
(PID.TID 0000.0001) > diffKhT=1.E1,
(PID.TID 0000.0001) > diffKrT=1.E-5,
(PID.TID 0000.0001) > diffKhS=1.E1,
(PID.TID 0000.0001) > diffKrS=1.E-5,
(PID.TID 0000.0001) >#
(PID.TID 0000.0001) >### diffKrBL79surf=0.1E-4,
(PID.TID 0000.0001) >### diffKrBL79deep=1.0E-4,
(PID.TID 0000.0001) > bottomDragQuadratic = 0.001,
(PID.TID 0000.0001) >#when using ggl90
(PID.TID 0000.0001) > ivdc_kappa=10.,
(PID.TID 0000.0001) > implicitDiffusion=.TRUE.,
(PID.TID 0000.0001) > implicitViscosity=.TRUE.,
(PID.TID 0000.0001) > useRealFreshWaterFlux=.TRUE.,
(PID.TID 0000.0001) ># balanceThetaClimRelax=.TRUE.,
(PID.TID 0000.0001) > balanceSaltClimRelax=.TRUE.,
(PID.TID 0000.0001) ># balanceEmPmR=.TRUE.,
(PID.TID 0000.0001) ># balanceQnet=.TRUE.,
(PID.TID 0000.0001) > allowFreezing=.FALSE.,
(PID.TID 0000.0001) >### hFacInf=0.2,
(PID.TID 0000.0001) >### hFacSup=2.0,
(PID.TID 0000.0001) > hFacMin=.2,
(PID.TID 0000.0001) > hFacMinDr=5.,
(PID.TID 0000.0001) > select_rStar=2,
(PID.TID 0000.0001) > nonlinFreeSurf=4,
(PID.TID 0000.0001) > gravity=9.81,
(PID.TID 0000.0001) > rhonil=1029.,
(PID.TID 0000.0001) > rhoConst=1029.,
(PID.TID 0000.0001) > rhoConstFresh=1000.,
(PID.TID 0000.0001) > convertFW2Salt=-1.,
(PID.TID 0000.0001) > eosType='JMD95Z',
(PID.TID 0000.0001) > implicitFreeSurface=.TRUE.,
(PID.TID 0000.0001) > exactConserv=.TRUE.,
(PID.TID 0000.0001) > useSingleCpuIO=.TRUE.,
(PID.TID 0000.0001) > tempAdvScheme=30,
(PID.TID 0000.0001) > saltAdvScheme=30,
(PID.TID 0000.0001) > tempVertAdvScheme=3,
(PID.TID 0000.0001) > saltVertAdvScheme=3,
(PID.TID 0000.0001) > tempImplVertAdv=.TRUE.,
(PID.TID 0000.0001) > saltImplVertAdv=.TRUE.,
(PID.TID 0000.0001) > staggerTimeStep=.TRUE.,
(PID.TID 0000.0001) > vectorInvariantMomentum=.TRUE.,
(PID.TID 0000.0001) >#when using the cd scheme:
(PID.TID 0000.0001) ># useCDscheme=.TRUE.,
(PID.TID 0000.0001) > useJamartWetPoints=.TRUE.,
(PID.TID 0000.0001) > readBinaryPrec=32,
(PID.TID 0000.0001) > writeBinaryPrec=32,
(PID.TID 0000.0001) > debugLevel=1,
(PID.TID 0000.0001) > &
(PID.TID 0000.0001) >
(PID.TID 0000.0001) ># Elliptic solver parameters
(PID.TID 0000.0001) > &PARM02
(PID.TID 0000.0001) > cg2dMaxIters=300,
(PID.TID 0000.0001) > cg2dTargetResWunit=1.E-12,
(PID.TID 0000.0001) > &
(PID.TID 0000.0001) >
(PID.TID 0000.0001) ># Time stepping parameters
(PID.TID 0000.0001) > &PARM03
(PID.TID 0000.0001) > nIter0=1,
(PID.TID 0000.0001) >#2 lev2 for testing:
(PID.TID 0000.0001) >#nTimeSteps=8,
(PID.TID 0000.0001) >#20y:
(PID.TID 0000.0001) > nTimeSteps=175295,
(PID.TID 0000.0001) >#60 years
(PID.TID 0000.0001) >#nTimeSteps=525985,
(PID.TID 0000.0001) >#
(PID.TID 0000.0001) > forcing_In_AB=.FALSE.,
(PID.TID 0000.0001) > momDissip_In_AB=.FALSE.,
(PID.TID 0000.0001) >#when using the cd scheme:
(PID.TID 0000.0001) ># epsAB_CD = 0.25,
(PID.TID 0000.0001) ># tauCD=172800.0,
(PID.TID 0000.0001) > deltaTmom   =3600.,
(PID.TID 0000.0001) > deltaTtracer=3600.,
(PID.TID 0000.0001) > deltaTfreesurf=3600.,
(PID.TID 0000.0001) > deltaTClock =3600.,
(PID.TID 0000.0001) >#when using ab2:
(PID.TID 0000.0001) > abEps = 0.1,
(PID.TID 0000.0001) >#when using ab3:
(PID.TID 0000.0001) ># doAB_onGtGs=.FALSE.,
(PID.TID 0000.0001) ># alph_AB=0.5,
(PID.TID 0000.0001) ># beta_AB=0.281105,
(PID.TID 0000.0001) >#
(PID.TID 0000.0001) > pChkptFreq  =31536000.0,
(PID.TID 0000.0001) > chkptFreq   =31536000.0,
(PID.TID 0000.0001) ># taveFreq    =31536000.0,
(PID.TID 0000.0001) ># dumpFreq    =31536000.0,
(PID.TID 0000.0001) > monitorFreq = 7200.0,
(PID.TID 0000.0001) ># monitorFreq = 6307200.0,
(PID.TID 0000.0001) > dumpInitAndLast = .TRUE.,
(PID.TID 0000.0001) > adjMonitorFreq = 864000.0,
(PID.TID 0000.0001) > pickupStrictlyMatch=.FALSE.,
(PID.TID 0000.0001) > &
(PID.TID 0000.0001) >
(PID.TID 0000.0001) ># Gridding parameters
(PID.TID 0000.0001) > &PARM04
(PID.TID 0000.0001) > usingCurvilinearGrid=.TRUE.,
(PID.TID 0000.0001) > delR =
(PID.TID 0000.0001) >     10.00, 10.00, 10.00, 10.00, 10.00, 10.00, 10.00, 10.01,
(PID.TID 0000.0001) >     10.03, 10.11, 10.32, 10.80, 11.76, 13.42, 16.04, 19.82, 24.85,
(PID.TID 0000.0001) >     31.10, 38.42, 46.50, 55.00, 63.50, 71.58, 78.90, 85.15, 90.18,
(PID.TID 0000.0001) >     93.96, 96.58, 98.25, 99.25,100.01,101.33,104.56,111.33,122.83,
(PID.TID 0000.0001) >     139.09,158.94,180.83,203.55,226.50,249.50,272.50,295.50,318.50,
(PID.TID 0000.0001) >     341.50,364.50,387.50,410.50,433.50,456.50,
(PID.TID 0000.0001) > &
(PID.TID 0000.0001) >
(PID.TID 0000.0001) ># Input datasets
(PID.TID 0000.0001) > &PARM05
(PID.TID 0000.0001) >#adTapeDir='tapes',
(PID.TID 0000.0001) > bathyFile      ='bathy.bin',
(PID.TID 0000.0001) > hydrogThetaFile='T_OWPv1_M_eccollc_90x50.bin',
(PID.TID 0000.0001) > hydrogSaltFile ='S_OWPv1_M_eccollc_90x50.bin',
(PID.TID 0000.0001) > viscA4Dfile    ='viscA4Dfld.bin',
(PID.TID 0000.0001) > viscA4Zfile    ='viscA4Zfld.bin',
(PID.TID 0000.0001) > geothermalFile='geothermalFlux.bin',
(PID.TID 0000.0001) >#
(PID.TID 0000.0001) > &
(PID.TID 0000.0001) 
(PID.TID 0000.0001)  INI_PARMS ; starts to read PARM01
(PID.TID 0000.0001)  INI_PARMS ; read PARM01 : OK
(PID.TID 0000.0001)  INI_PARMS ; starts to read PARM02
(PID.TID 0000.0001)  INI_PARMS ; read PARM02 : OK
(PID.TID 0000.0001)  INI_PARMS ; starts to read PARM03
(PID.TID 0000.0001)  INI_PARMS ; read PARM03 : OK
(PID.TID 0000.0001)  INI_PARMS ; starts to read PARM04
(PID.TID 0000.0001)  INI_PARMS ; read PARM04 : OK
(PID.TID 0000.0001)  INI_PARMS ; starts to read PARM05
(PID.TID 0000.0001)  INI_PARMS ; read PARM05 : OK
(PID.TID 0000.0001)  INI_PARMS: finished reading file "data"
(PID.TID 0000.0001)  PACKAGES_BOOT: opening data.pkg
(PID.TID 0000.0001)  OPEN_COPY_DATA_FILE: opening file data.pkg
(PID.TID 0000.0001) // =======================================================
(PID.TID 0000.0001) // Parameter file "data.pkg"
(PID.TID 0000.0001) // =======================================================
(PID.TID 0000.0001) ># Packages
(PID.TID 0000.0001) > &PACKAGES
(PID.TID 0000.0001) > useGMRedi          = .TRUE.,
(PID.TID 0000.0001) > useGGL90           = .TRUE.,
(PID.TID 0000.0001) > useSALT_PLUME      = .TRUE.,
(PID.TID 0000.0001) > useDiagnostics     = .TRUE.,
(PID.TID 0000.0001) > &
(PID.TID 0000.0001) 
(PID.TID 0000.0001)  PACKAGES_BOOT: finished reading data.pkg
(PID.TID 0000.0001)  PACKAGES_BOOT: On/Off package Summary
 --------  pkgs with a standard "usePKG" On/Off switch in "data.pkg":  --------
 pkg/ggl90                compiled   and   used ( useGGL90                 = T )
 pkg/gmredi               compiled   and   used ( useGMRedi                = T )
 pkg/salt_plume           compiled   and   used ( useSALT_PLUME            = T )
 pkg/diagnostics          compiled   and   used ( useDiagnostics           = T )
 -------- pkgs without standard "usePKG" On/Off switch in "data.pkg":  --------
 pkg/generic_advdiff      compiled   and   used ( useGAD                   = T )
 pkg/mom_common           compiled   and   used ( momStepping              = T )
 pkg/mom_vecinv           compiled   and   used ( +vectorInvariantMomentum = T )
 pkg/monitor              compiled   and   used ( monitorFreq > 0.         = T )
 pkg/debug                compiled but not used ( debugMode                = F )
 pkg/exch2                compiled   and   used
 pkg/rw                   compiled   and   used
 pkg/mdsio                compiled   and   used
(PID.TID 0000.0001)  PACKAGES_BOOT: End of package Summary
(PID.TID 0000.0001) 
(PID.TID 0000.0001)  GGL90_READPARMS: opening data.ggl90
(PID.TID 0000.0001)  OPEN_COPY_DATA_FILE: opening file data.ggl90
(PID.TID 0000.0001) // =======================================================
(PID.TID 0000.0001) // Parameter file "data.ggl90"
(PID.TID 0000.0001) // =======================================================
(PID.TID 0000.0001) ># =====================================================================
(PID.TID 0000.0001) ># | Parameters for Gaspar et al. (1990)'s TKE vertical mixing scheme  |
(PID.TID 0000.0001) ># =====================================================================
(PID.TID 0000.0001) > &GGL90_PARM01
(PID.TID 0000.0001) ># GGL90taveFreq = 345600000.,
(PID.TID 0000.0001) ># GGL90dumpFreq = 86400.,
(PID.TID 0000.0001) ># GGL90writeState=.FALSE.,
(PID.TID 0000.0001) ># GGL90diffTKEh=3.e3,
(PID.TID 0000.0001) > GGL90alpha=30.,
(PID.TID 0000.0001) ># GGL90TKEFile = 'TKE_init.bin',
(PID.TID 0000.0001) > GGL90TKEmin  = 1.e-7,
(PID.TID 0000.0001) > GGL90TKEbottom = 1.e-6,
(PID.TID 0000.0001) > mxlMaxFlag =2,
(PID.TID 0000.0001) > mxlSurfFlag=.TRUE.,
(PID.TID 0000.0001) > &
(PID.TID 0000.0001) 
(PID.TID 0000.0001)  GGL90_READPARMS: finished reading data.ggl90
(PID.TID 0000.0001) // =======================================================
(PID.TID 0000.0001) // GGL90 configuration
(PID.TID 0000.0001) // =======================================================
(PID.TID 0000.0001) GGL90dumpFreq =   /* GGL90 state write out interval ( s ). */
(PID.TID 0000.0001)                 0.000000000000000E+00
(PID.TID 0000.0001)     ;
(PID.TID 0000.0001) GGL90taveFreq =   /* GGL90 averaging interval ( s ). */
(PID.TID 0000.0001)                 0.000000000000000E+00
(PID.TID 0000.0001)     ;
(PID.TID 0000.0001) GGL90mixingMAPS =   /* GGL90 IO flag. */
(PID.TID 0000.0001)                   F
(PID.TID 0000.0001)     ;
(PID.TID 0000.0001) GGL90writeState =   /* GGL90 IO flag. */
(PID.TID 0000.0001)                   F
(PID.TID 0000.0001)     ;
(PID.TID 0000.0001) GGL90ck =   /* GGL90 viscosity parameter. */
(PID.TID 0000.0001)                 1.000000000000000E-01
(PID.TID 0000.0001)     ;
(PID.TID 0000.0001) GGL90ceps =   /* GGL90 dissipation parameter. */
(PID.TID 0000.0001)                 7.000000000000000E-01
(PID.TID 0000.0001)     ;
(PID.TID 0000.0001) GGL90alpha =   /* GGL90 TKE diffusivity parameter. */
(PID.TID 0000.0001)                 3.000000000000000E+01
(PID.TID 0000.0001)     ;
(PID.TID 0000.0001) GGL90m2 =   /* GGL90 wind stress to vertical stress ratio. */
(PID.TID 0000.0001)                 3.750000000000000E+00
(PID.TID 0000.0001)     ;
(PID.TID 0000.0001) GGL90TKEmin =   /* GGL90 minimum kinetic energy ( m^2/s^2 ). */
(PID.TID 0000.0001)                 1.000000000000000E-07
(PID.TID 0000.0001)     ;
(PID.TID 0000.0001) GGL90TKEsurfMin =   /* GGL90 minimum surface kinetic energy ( m^2/s^2 ). */
(PID.TID 0000.0001)                 1.000000000000000E-04
(PID.TID 0000.0001)     ;
(PID.TID 0000.0001) GGL90TKEbottom =   /* GGL90 bottom kinetic energy ( m^2/s^2 ). */
(PID.TID 0000.0001)                 1.000000000000000E-06
(PID.TID 0000.0001)     ;
(PID.TID 0000.0001) GGL90viscMax =   /* GGL90 upper limit for viscosity ( m^2/s ). */
(PID.TID 0000.0001)                 1.000000000000000E+02
(PID.TID 0000.0001)     ;
(PID.TID 0000.0001) GGL90diffMax =   /* GGL90 upper limit for diffusivity ( m^2/s ). */
(PID.TID 0000.0001)                 1.000000000000000E+02
(PID.TID 0000.0001)     ;
(PID.TID 0000.0001) GGL90diffTKEh =   /* GGL90 horizontal diffusivity for TKE ( m^2/s ). */
(PID.TID 0000.0001)                 0.000000000000000E+00
(PID.TID 0000.0001)     ;
(PID.TID 0000.0001) GGL90mixingLengthMin =   /* GGL90 minimum mixing length ( m ). */
(PID.TID 0000.0001)                 1.000000000000000E-08
(PID.TID 0000.0001)     ;
(PID.TID 0000.0001) mxlMaxFlag =   /* Flag for limiting mixing-length method */
(PID.TID 0000.0001)                       2
(PID.TID 0000.0001)     ;
(PID.TID 0000.0001) mxlSurfFlag =   /* GGL90 flag for near surface mixing. */
(PID.TID 0000.0001)                   T
(PID.TID 0000.0001)     ;
(PID.TID 0000.0001) calcMeanVertShear = /* calc Mean of Vert.Shear (vs shear of Mean flow) */
(PID.TID 0000.0001)                   F
(PID.TID 0000.0001)     ;
(PID.TID 0000.0001) GGL90: GGL90TKEFile =
(PID.TID 0000.0001) GGL90writeState =   /* GGL90 Boundary condition flag. */
(PID.TID 0000.0001)                   T
(PID.TID 0000.0001)     ;
(PID.TID 0000.0001) // =======================================================
(PID.TID 0000.0001) // End of GGL90 config. summary
(PID.TID 0000.0001) // =======================================================
(PID.TID 0000.0001) 
(PID.TID 0000.0001)  GM_READPARMS: opening data.gmredi
(PID.TID 0000.0001)  OPEN_COPY_DATA_FILE: opening file data.gmredi
(PID.TID 0000.0001) // =======================================================
(PID.TID 0000.0001) // Parameter file "data.gmredi"
(PID.TID 0000.0001) // =======================================================
(PID.TID 0000.0001) ># GM+Redi package parameters:
(PID.TID 0000.0001) >#     GM_Small_Number  :: epsilon used in computing the slope
(PID.TID 0000.0001) >#     GM_slopeSqCutoff :: slope^2 cut-off value
(PID.TID 0000.0001) >
(PID.TID 0000.0001) >#-from MOM :
(PID.TID 0000.0001) ># GM_background_K: 	G & Mc.W  diffusion coefficient
(PID.TID 0000.0001) ># GM_maxSlope    :	max slope of isopycnals
(PID.TID 0000.0001) ># GM_Scrit       :	transition for scaling diffusion coefficient
(PID.TID 0000.0001) ># GM_Sd          :	half width scaling for diffusion coefficient
(PID.TID 0000.0001) ># GM_taper_scheme:	slope clipping or one of the tapering schemes
(PID.TID 0000.0001) ># GM_Kmin_horiz  :	horizontal diffusion minimum value
(PID.TID 0000.0001) >
(PID.TID 0000.0001) >#-Option parameters (needs to "define" options in GMREDI_OPTIONS.h")
(PID.TID 0000.0001) ># GM_isopycK     :	isopycnal diffusion coefficient (default=GM_background_K)
(PID.TID 0000.0001) ># GM_AdvForm     :	turn on GM Advective form       (default=Skew flux form)
(PID.TID 0000.0001) >
(PID.TID 0000.0001) > &GM_PARM01
(PID.TID 0000.0001) >  GM_Small_Number  = 1.D-20,
(PID.TID 0000.0001) >  GM_slopeSqCutoff = 1.D+08,
(PID.TID 0000.0001) >  GM_AdvForm         = .TRUE.,
(PID.TID 0000.0001) >  GM_isopycK         = 1.D+3,
(PID.TID 0000.0001) >  GM_background_K    = 1.D+3,
(PID.TID 0000.0001) >  GM_maxSlope        = 4.D-3,
(PID.TID 0000.0001) >  GM_taper_scheme    = 'stableGmAdjTap',
(PID.TID 0000.0001) >  GM_Kmin_horiz      = 100.,
(PID.TID 0000.0001) >  GM_Scrit           = 4.D-3,
(PID.TID 0000.0001) >  GM_Sd              = 1.D-3,
(PID.TID 0000.0001) >#
(PID.TID 0000.0001) >###  GM_Visbeck_alpha   = 1.5D-2,
(PID.TID 0000.0001) >###  GM_Visbeck_alpha   = 0.D0,
(PID.TID 0000.0001) >###  GM_Visbeck_length  = 2.D+5,
(PID.TID 0000.0001) >###  GM_Visbeck_depth   = 1.D+3,
(PID.TID 0000.0001) >###  GM_Visbeck_maxval_K= 2.5D+3,
(PID.TID 0000.0001) > &
(PID.TID 0000.0001) >
(PID.TID 0000.0001) >
(PID.TID 0000.0001) 
(PID.TID 0000.0001)  GM_READPARMS: finished reading data.gmredi
(PID.TID 0000.0001) SALT_PLUME_READPARMS: opening data.salt_plume
(PID.TID 0000.0001)  OPEN_COPY_DATA_FILE: opening file data.salt_plume
(PID.TID 0000.0001) // =======================================================
(PID.TID 0000.0001) // Parameter file "data.salt_plume"
(PID.TID 0000.0001) // =======================================================
(PID.TID 0000.0001) > &SALT_PLUME_PARM01
(PID.TID 0000.0001) > SPsalFRAC= 0.5D0,
(PID.TID 0000.0001) > &
(PID.TID 0000.0001) 
(PID.TID 0000.0001) SALT_PLUME_READPARMS: finished reading data.salt_plume
(PID.TID 0000.0001)  DIAGNOSTICS_READPARMS: opening data.diagnostics
(PID.TID 0000.0001)  OPEN_COPY_DATA_FILE: opening file data.diagnostics
(PID.TID 0000.0001) // =======================================================
(PID.TID 0000.0001) // Parameter file "data.diagnostics"
(PID.TID 0000.0001) // =======================================================
(PID.TID 0000.0001) ># Diagnostic Package Choices
(PID.TID 0000.0001) >#-----------------
(PID.TID 0000.0001) ># for each output-stream:
(PID.TID 0000.0001) >#  filename(n) : prefix of the output file name (only 8.c long) for outp.stream n
(PID.TID 0000.0001) >#  frequency(n):< 0 : write snap-shot output every multiple of |frequency| (iter)
(PID.TID 0000.0001) >#               > 0 : write time-average output every multiple of frequency (iter)
(PID.TID 0000.0001) >#  levels(:,n) : list of levels to write to file (Notes: declared as REAL)
(PID.TID 0000.0001) >#                 when this entry is missing, select all common levels of this list
(PID.TID 0000.0001) >#  fields(:,n) : list of diagnostics fields (8.c) (see "available_diagnostics" file
(PID.TID 0000.0001) >#                 for the list of all available diag. in this particular config)
(PID.TID 0000.0001) >#--------------------------------------------------------------------
(PID.TID 0000.0001) >#
(PID.TID 0000.0001) > &diagnostics_list
(PID.TID 0000.0001) >#
(PID.TID 0000.0001) >   dumpatlast = .TRUE.,
(PID.TID 0000.0001) >   diagMdsDir = 'diags',
(PID.TID 0000.0001) >#---
(PID.TID 0000.0001) >  frequency(1) = 2635200.0,
(PID.TID 0000.0001) >   fields(1:9,1) = 'ETAN    ',
(PID.TID 0000.0001) >#stuff that is not quite state variables (and may not be quite
(PID.TID 0000.0001) >#synchroneous) but are added here to reduce number of files
(PID.TID 0000.0001) >                 'DETADT2 ','PHIBOT  ',
(PID.TID 0000.0001) >                 'MXLDEPTH','oceSPDep',
(PID.TID 0000.0001) >                 'oceQnet ','oceFWflx',
(PID.TID 0000.0001) >                 'oceTAUX ','oceTAUY ',
(PID.TID 0000.0001) >   filename(1) = 'state_2d_set1',
(PID.TID 0000.0001) >#---
(PID.TID 0000.0001) >  frequency(2) = 2635200.0,
(PID.TID 0000.0001) >   fields(1:3,2) = 'THETA   ','SALT    ',
(PID.TID 0000.0001) >#stuff that is not quite state variables (and may not be quite
(PID.TID 0000.0001) >#synchroneous) but are added here to reduce file number
(PID.TID 0000.0001) >                 'DRHODR  ',
(PID.TID 0000.0001) >#                'KPPviscA','KPPdiffT','KPPdiffTS',
(PID.TID 0000.0001) >#                'GGL90TKE','GGL90Lmx','GGL90Prl',
(PID.TID 0000.0001) >#                'GGL90ArU','GGL90ArV','GGL90Kr ',
(PID.TID 0000.0001) >   filename(2) = 'state_3d_set1',
(PID.TID 0000.0001) >#---
(PID.TID 0000.0001) >  frequency(3) = 2635200.0,
(PID.TID 0000.0001) >   fields(1:5,3) = 'UVELMASS','VVELMASS','WVELMASS',
(PID.TID 0000.0001) >                 'GM_PsiX ','GM_PsiY ',
(PID.TID 0000.0001) >#uvel is approximately uvelmass divided by initial hfac, so we dont output the former
(PID.TID 0000.0001) >#                'UVEL    ','VVEL    ','WVEL     ',
(PID.TID 0000.0001) >#full 3D temperature fluxes : 'DFxE_TH ','DFyE_TH ','DFrE_TH ','DFrI_TH ','ADVx_TH ','ADVy_TH ','ADVr_TH ',
(PID.TID 0000.0001) >#but for present computations I only need the vertically integrated horizontal components (see trsp_3d_set2)
(PID.TID 0000.0001) >   filename(3) = 'trsp_3d_set1',
(PID.TID 0000.0001) >#---
(PID.TID 0000.0001) >  frequency(4) = 2635200.0,
(PID.TID 0000.0001) >   fields(1:8,4) = 'DFxE_TH ','DFyE_TH ','ADVx_TH ','ADVy_TH ',
(PID.TID 0000.0001) >                 'DFxE_SLT','DFyE_SLT','ADVx_SLT','ADVy_SLT',
(PID.TID 0000.0001) >   filename(4) = 'trsp_3d_set2',
(PID.TID 0000.0001) >#vertically integrate fields we only use to compute vertically integr.
(PID.TID 0000.0001) >#meridional transports (also omit vertical transports, both to save space)
(PID.TID 0000.0001) >#---
(PID.TID 0000.0001) >  frequency(5) = -2635200.0,
(PID.TID 0000.0001) >   fields(1:2,5) = 'ETAN    ',
(PID.TID 0000.0001) >                   'PHIBOT  ',
(PID.TID 0000.0001) >#  filename(5) = 'budg2d_snap_set1',
(PID.TID 0000.0001) >   timePhase(5)= 0.,
(PID.TID 0000.0001) >   fileFlags(5) = 'D       ',
(PID.TID 0000.0001) >#---
(PID.TID 0000.0001) >  frequency(6) = -2635200.0,
(PID.TID 0000.0001) >   fields(1:2,6) = 'THETA   ','SALT    ',
(PID.TID 0000.0001) >#  filename(6) = 'budg2d_snap_set2',
(PID.TID 0000.0001) >   timePhase(6)= 0.,
(PID.TID 0000.0001) >   fileFlags(6) = 'DI      ',
(PID.TID 0000.0001) >#---
(PID.TID 0000.0001) >  frequency(7) = 2635200.0,
(PID.TID 0000.0001) >   fields(1:4,7) = 'oceFWflx','TFLUX   ',
(PID.TID 0000.0001) >                   'SFLUX   ','oceQsw  ',
(PID.TID 0000.0001) >#  filename(7) = 'budg2d_zflux_set1',
(PID.TID 0000.0001) >   fileFlags(7) = 'D       ',
(PID.TID 0000.0001) >#---
(PID.TID 0000.0001) >  frequency(8) = 2635200.0,
(PID.TID 0000.0001) >   fields(1:13,8) ='UVELMASS','VVELMASS',
(PID.TID 0000.0001) >                 'ADVx_TH ','ADVy_TH ','DFxE_TH ','DFyE_TH ',
(PID.TID 0000.0001) >                 'ADVx_SLT','ADVy_SLT','DFxE_SLT','DFyE_SLT',
(PID.TID 0000.0001) >#the following are not transports but tendencies
(PID.TID 0000.0001) >                 'oceSPtnd','AB_gT   ','AB_gS   ',
(PID.TID 0000.0001) >#  filename(8) = 'budg2d_hflux_set2',
(PID.TID 0000.0001) >   fileFlags(8) = 'DI      ',
(PID.TID 0000.0001) >#---
(PID.TID 0000.0001) ># this one is important because it activates the vertical advection diags
(PID.TID 0000.0001) >  frequency(9) = 2635200.0,
(PID.TID 0000.0001) >   fields(1:7,9) = 'ADVr_TH ','DFrE_TH ','DFrI_TH ',
(PID.TID 0000.0001) >                  'ADVr_SLT','DFrE_SLT','DFrI_SLT',
(PID.TID 0000.0001) >                  'WVELMASS',
(PID.TID 0000.0001) >#  filename(9) = 'budg2d_zflux_set3_11',
(PID.TID 0000.0001) >   levels(1, 9)= 11.,
(PID.TID 0000.0001) >   fileFlags(9) = 'D       ',
(PID.TID 0000.0001) >#---
(PID.TID 0000.0001) >  frequency(10) = 2635200.0,
(PID.TID 0000.0001) >   fields(1:6,10) ='SRELAX  ','TRELAX  ','WTHMASS ','WSLTMASS',
(PID.TID 0000.0001) >                 'oceSflux','oceQnet ',
(PID.TID 0000.0001) >#  filename(10) = 'budg2d_zflux_set2',
(PID.TID 0000.0001) >   fileFlags(10) = 'D       ',
(PID.TID 0000.0001) >#---
(PID.TID 0000.0001) >  frequency(11) = 2635200.0,
(PID.TID 0000.0001) >   fields(1:13,11) ='UVELMASS','VVELMASS',
(PID.TID 0000.0001) >                 'ADVx_TH ','ADVy_TH ','DFxE_TH ','DFyE_TH ',
(PID.TID 0000.0001) >                 'ADVx_SLT','ADVy_SLT','DFxE_SLT','DFyE_SLT',
(PID.TID 0000.0001) >                 'oceSPtnd','AB_gT   ','AB_gS   ',
(PID.TID 0000.0001) >#  filename(11) = 'budg2d_hflux_set3_11',
(PID.TID 0000.0001) >   levels(1:40,11) = 11.,12.,13.,14.,15.,16.,17.,18.,19.,20.,
(PID.TID 0000.0001) >                     21.,22.,23.,24.,25.,26.,27.,28.,29.,30.,
(PID.TID 0000.0001) >                     31.,32.,33.,34.,35.,36.,37.,38.,39.,40.,
(PID.TID 0000.0001) >                     41.,42.,43.,44.,45.,46.,47.,48.,49.,50.,
(PID.TID 0000.0001) >   fileFlags(11) = 'DI      ',
(PID.TID 0000.0001) >#---
(PID.TID 0000.0001) >  frequency(12) = -2635200.0,
(PID.TID 0000.0001) >   fields(1:2,12) = 'THETA   ','SALT    ',
(PID.TID 0000.0001) >#  filename(12) = 'budg2d_snap_set3_11',
(PID.TID 0000.0001) >   timePhase(12)= 0.,
(PID.TID 0000.0001) >   levels(1:40,12) = 11.,12.,13.,14.,15.,16.,17.,18.,19.,20.,
(PID.TID 0000.0001) >                     21.,22.,23.,24.,25.,26.,27.,28.,29.,30.,
(PID.TID 0000.0001) >                     31.,32.,33.,34.,35.,36.,37.,38.,39.,40.,
(PID.TID 0000.0001) >                     41.,42.,43.,44.,45.,46.,47.,48.,49.,50.,
(PID.TID 0000.0001) >   fileFlags(12) = 'DI      ',
(PID.TID 0000.0001) >#---
(PID.TID 0000.0001) >  frequency(13) = 2635200.0,
(PID.TID 0000.0001) >   fields(1:8,13) = 'DFxE_TH ','DFyE_TH ','ADVx_TH ','ADVy_TH ',
(PID.TID 0000.0001) >                 'DFxE_SLT','DFyE_SLT','ADVx_SLT','ADVy_SLT',
(PID.TID 0000.0001) >#  filename(13) = 'trsp_2d_set1',
(PID.TID 0000.0001) >#vertically integrate fields we only use to compute vertically integr.
(PID.TID 0000.0001) >#meridional transports (also omit vertical transports, both to save space)
(PID.TID 0000.0001) >   fileFlags(13) = ' I      ',
(PID.TID 0000.0001) >#---
(PID.TID 0000.0001) >  frequency(14) = 2635200.0,
(PID.TID 0000.0001) >   fields(1:3,14) = 'RHOAnoma','PHIHYD  ','oceSPtnd',
(PID.TID 0000.0001) >#  filename(14) = 'state_3d_set2',
(PID.TID 0000.0001) >#---
(PID.TID 0000.0001) >  frequency(15) = 2635200.0,
(PID.TID 0000.0001) >   fields(1:7,15) = 'ADVr_TH ','DFrE_TH ','DFrI_TH ',
(PID.TID 0000.0001) >        'ADVr_SLT','DFrE_SLT','DFrI_SLT','WVELMASS',
(PID.TID 0000.0001) >#  filename(15) = 'trsp_3d_set3',
(PID.TID 0000.0001) >#---
(PID.TID 0000.0001) >  frequency(16) = 2635200.0,
(PID.TID 0000.0001) >   fields(1:4,16) = 'TFLUX   ','SFLUX   ',
(PID.TID 0000.0001) >        'oceQsw  ','oceSPflx',
(PID.TID 0000.0001) >#  filename(16) = 'state_2d_set2',
(PID.TID 0000.0001) >#---
(PID.TID 0000.0001) > &
(PID.TID 0000.0001) >#
(PID.TID 0000.0001) >#
(PID.TID 0000.0001) ># Parameter for Diagnostics of per level statistics:
(PID.TID 0000.0001) >#-----------------
(PID.TID 0000.0001) ># for each output-stream:
(PID.TID 0000.0001) >#  stat_fname(n) : prefix of the output file name (only 8.c long) for outp.stream n
(PID.TID 0000.0001) >#  stat_freq(n):< 0 : write snap-shot output every |stat_freq| seconds
(PID.TID 0000.0001) >#               > 0 : write time-average output every stat_freq seconds
(PID.TID 0000.0001) >#  stat_phase(n)    : write at time = stat_phase + multiple of |stat_freq|
(PID.TID 0000.0001) >#  stat_region(:,n) : list of "regions" (default: 1 region only=global)
(PID.TID 0000.0001) >#  stat_fields(:,n) : list of diagnostics fields (8.c) (see "available_diagnostics.log"
(PID.TID 0000.0001) >#                 file for the list of all available diag. in this particular config)
(PID.TID 0000.0001) >#-----------------
(PID.TID 0000.0001) > &DIAG_STATIS_PARMS
(PID.TID 0000.0001) ># diagSt_regMaskFile='basin_masks_eccollc_90x50.bin',
(PID.TID 0000.0001) ># nSetRegMskFile=1,
(PID.TID 0000.0001) ># set_regMask(1)= 1,  1,  1,  1,  1,  1,  1,  1,  1,
(PID.TID 0000.0001) >#                 1,  1,  1,  1,  1,  1,  1,  1
(PID.TID 0000.0001) ># val_regMask(1)= 1., 2., 3., 4., 5., 6., 7., 8., 9.,
(PID.TID 0000.0001) >#                10.,11.,12.,13.,14.,15.,16.,17.
(PID.TID 0000.0001) >##---
(PID.TID 0000.0001) ># stat_fields(1,1)= 'ETAN    ','ETANSQ  ','DETADT2 ',
(PID.TID 0000.0001) >#                   'UVEL    ','VVEL    ','WVEL    ',
(PID.TID 0000.0001) >#                   'THETA   ','SALT    ',
(PID.TID 0000.0001) >#    stat_fname(1)= 'dynStDiag',
(PID.TID 0000.0001) >#     stat_freq(1)= 3153600.,
(PID.TID 0000.0001) ># stat_region(1,1)=  1, 2, 3, 4, 5, 6, 7, 8, 9,
(PID.TID 0000.0001) >#                   10,11,12,13,14,15,16,17
(PID.TID 0000.0001) >##---
(PID.TID 0000.0001) ># stat_fields(1,2)= 'oceTAUX ','oceTAUY ',
(PID.TID 0000.0001) >#                   'surForcT','surForcS','TFLUX   ','SFLUX   ',
(PID.TID 0000.0001) >#                   'oceQnet ','oceSflux','oceFWflx',
(PID.TID 0000.0001) >#    stat_fname(2)= 'surfStDiag',
(PID.TID 0000.0001) >#     stat_freq(2)= 3153600.,
(PID.TID 0000.0001) ># stat_region(1,2)=  1, 2, 3, 4, 5, 6, 7, 8, 9,
(PID.TID 0000.0001) >#                   10,11,12,13,14,15,16,17
(PID.TID 0000.0001) > &
(PID.TID 0000.0001) 
(PID.TID 0000.0001) S/R DIAGNOSTICS_READPARMS, read namelist "diagnostics_list": start
(PID.TID 0000.0001) S/R DIAGNOSTICS_READPARMS, read namelist "diagnostics_list": OK
(PID.TID 0000.0001) S/R DIAGNOSTICS_READPARMS, read namelist "DIAG_STATIS_PARMS": start
(PID.TID 0000.0001) S/R DIAGNOSTICS_READPARMS, read namelist "DIAG_STATIS_PARMS": OK
(PID.TID 0000.0001)  DIAGNOSTICS_READPARMS: global parameter summary:
(PID.TID 0000.0001)  dumpAtLast = /* always write time-ave diags at the end */
(PID.TID 0000.0001)                   T
(PID.TID 0000.0001)     ;
(PID.TID 0000.0001)  diag_mnc =   /* write NetCDF output files */
(PID.TID 0000.0001)                   F
(PID.TID 0000.0001)     ;
(PID.TID 0000.0001)  diagMdsDir = /* directory for mds diagnostics output */
(PID.TID 0000.0001)               'diags'
(PID.TID 0000.0001)     ;
(PID.TID 0000.0001)  diagMdsDirCreate = /* call mkdir to create diagMdsDir */
(PID.TID 0000.0001)                   T
(PID.TID 0000.0001)     ;
(PID.TID 0000.0001)  useMissingValue = /* put MissingValue where mask = 0 */
(PID.TID 0000.0001)                   F
(PID.TID 0000.0001)     ;
(PID.TID 0000.0001)  diagCG_maxIters = /* max number of iters in diag_cg2d */
(PID.TID 0000.0001)                     300
(PID.TID 0000.0001)     ;
(PID.TID 0000.0001)  diagCG_resTarget = /* residual target for diag_cg2d */
(PID.TID 0000.0001)                 1.000000000000000E-07
(PID.TID 0000.0001)     ;
(PID.TID 0000.0001)  diagCG_pcOffDFac = /* preconditioner off-diagonal factor */
(PID.TID 0000.0001)                 9.611687812379854E-01
(PID.TID 0000.0001)     ;
(PID.TID 0000.0001) -----------------------------------------------------
(PID.TID 0000.0001)  DIAGNOSTICS_READPARMS: active diagnostics summary:
(PID.TID 0000.0001) -----------------------------------------------------
(PID.TID 0000.0001) Creating Output Stream: state_2d_set1
(PID.TID 0000.0001) Output Frequency:    2635200.000000 ; Phase:           0.000000
(PID.TID 0000.0001)  Averaging Freq.:    2635200.000000 , Phase:           0.000000 , Cycle:   1
(PID.TID 0000.0001)  missing value: -9.990000000000E+02
(PID.TID 0000.0001)  Levels:    will be set later
(PID.TID 0000.0001)  Fields:    ETAN     DETADT2  PHIBOT   MXLDEPTH oceSPDep oceQnet  oceFWflx oceTAUX  oceTAUY
(PID.TID 0000.0001) Creating Output Stream: state_3d_set1
(PID.TID 0000.0001) Output Frequency:    2635200.000000 ; Phase:           0.000000
(PID.TID 0000.0001)  Averaging Freq.:    2635200.000000 , Phase:           0.000000 , Cycle:   1
(PID.TID 0000.0001)  missing value: -9.990000000000E+02
(PID.TID 0000.0001)  Levels:    will be set later
(PID.TID 0000.0001)  Fields:    THETA    SALT     DRHODR
(PID.TID 0000.0001) Creating Output Stream: trsp_3d_set1
(PID.TID 0000.0001) Output Frequency:    2635200.000000 ; Phase:           0.000000
(PID.TID 0000.0001)  Averaging Freq.:    2635200.000000 , Phase:           0.000000 , Cycle:   1
(PID.TID 0000.0001)  missing value: -9.990000000000E+02
(PID.TID 0000.0001)  Levels:    will be set later
(PID.TID 0000.0001)  Fields:    UVELMASS VVELMASS WVELMASS GM_PsiX  GM_PsiY
(PID.TID 0000.0001) Creating Output Stream: trsp_3d_set2
(PID.TID 0000.0001) Output Frequency:    2635200.000000 ; Phase:           0.000000
(PID.TID 0000.0001)  Averaging Freq.:    2635200.000000 , Phase:           0.000000 , Cycle:   1
(PID.TID 0000.0001)  missing value: -9.990000000000E+02
(PID.TID 0000.0001)  Levels:    will be set later
(PID.TID 0000.0001)  Fields:    DFxE_TH  DFyE_TH  ADVx_TH  ADVy_TH  DFxE_SLT DFyE_SLT ADVx_SLT ADVy_SLT
(PID.TID 0000.0001) -----------------------------------------------------
(PID.TID 0000.0001)  DIAGNOSTICS_READPARMS: statistics diags. summary:
(PID.TID 0000.0001) -----------------------------------------------------
(PID.TID 0000.0001) 
(PID.TID 0000.0001) SET_PARMS: done
 ==> SYSTEM CALL (from DIAGNOSTICS_INI_IO): > mkdir -p diags <
(PID.TID 0000.0001) 
(PID.TID 0000.0001) Enter INI_VERTICAL_GRID: setInterFDr=    T ; setCenterDr=    F
(PID.TID 0000.0001) tile:   4 ; Read from file tile001.mitgrid
(PID.TID 0000.0001)   => xC yC dxF dyF rA xG yG dxV dyU rAz dxC dyC rAw rAs dxG dyG
(PID.TID 0000.0001) %MON XC_max                       =   1.7997758946678E+02
(PID.TID 0000.0001) %MON XC_min                       =  -1.7998895680928E+02
(PID.TID 0000.0001) %MON XC_mean                      =  -6.8997670631350E+00
(PID.TID 0000.0001) %MON XC_sd                        =   1.0548127462941E+02
(PID.TID 0000.0001) %MON XG_max                       =   1.8000000000000E+02
(PID.TID 0000.0001) %MON XG_min                       =  -1.7999919444240E+02
(PID.TID 0000.0001) %MON XG_mean                      =  -6.3521159278861E+00
(PID.TID 0000.0001) %MON XG_sd                        =   1.0549598176576E+02
(PID.TID 0000.0001) %MON DXC_max                      =   1.1117680031365E+05
(PID.TID 0000.0001) %MON DXC_min                      =   1.3362789164732E+04
(PID.TID 0000.0001) %MON DXC_mean                     =   7.1345115143606E+04
(PID.TID 0000.0001) %MON DXC_sd                       =   2.6107013089865E+04
(PID.TID 0000.0001) %MON DXF_max                      =   1.1117680031365E+05
(PID.TID 0000.0001) %MON DXF_min                      =   1.3491575949394E+04
(PID.TID 0000.0001) %MON DXF_mean                     =   7.1334806791260E+04
(PID.TID 0000.0001) %MON DXF_sd                       =   2.6121349328995E+04
(PID.TID 0000.0001) %MON DXG_max                      =   1.1117747335204E+05
(PID.TID 0000.0001) %MON DXG_min                      =   1.0930409249570E+04
(PID.TID 0000.0001) %MON DXG_mean                     =   7.1313583950284E+04
(PID.TID 0000.0001) %MON DXG_sd                       =   2.6131714747840E+04
(PID.TID 0000.0001) %MON DXV_max                      =   1.1117747335204E+05
(PID.TID 0000.0001) %MON DXV_min                      =   9.4742518926426E+03
(PID.TID 0000.0001) %MON DXV_mean                     =   7.1323777998314E+04
(PID.TID 0000.0001) %MON DXV_sd                       =   2.6117603792432E+04
(PID.TID 0000.0001) %MON YC_max                       =   8.9739397429324E+01
(PID.TID 0000.0001) %MON YC_min                       =  -8.1637173529390E+01
(PID.TID 0000.0001) %MON YC_mean                      =  -5.9338515025079E-01
(PID.TID 0000.0001) %MON YC_sd                        =   5.1058908630085E+01
(PID.TID 0000.0001) %MON YG_max                       =   9.0000000000000E+01
(PID.TID 0000.0001) %MON YG_min                       =  -8.1805478609906E+01
(PID.TID 0000.0001) %MON YG_mean                      =  -5.7357831765458E-01
(PID.TID 0000.0001) %MON YG_sd                        =   5.1060174609345E+01
(PID.TID 0000.0001) %MON DYC_max                      =   1.1117680031365E+05
(PID.TID 0000.0001) %MON DYC_min                      =   1.3362789164732E+04
(PID.TID 0000.0001) %MON DYC_mean                     =   7.0982792089666E+04
(PID.TID 0000.0001) %MON DYC_sd                       =   2.6607387075348E+04
(PID.TID 0000.0001) %MON DYF_max                      =   1.1117680031365E+05
(PID.TID 0000.0001) %MON DYF_min                      =   1.3491575949394E+04
(PID.TID 0000.0001) %MON DYF_mean                     =   7.1000127494934E+04
(PID.TID 0000.0001) %MON DYF_sd                       =   2.6603606017547E+04
(PID.TID 0000.0001) %MON DYG_max                      =   1.1117747335204E+05
(PID.TID 0000.0001) %MON DYG_min                      =   1.0930409249570E+04
(PID.TID 0000.0001) %MON DYG_mean                     =   7.1022116512585E+04
(PID.TID 0000.0001) %MON DYG_sd                       =   2.6571715830406E+04
(PID.TID 0000.0001) %MON DYU_max                      =   1.1117747335204E+05
(PID.TID 0000.0001) %MON DYU_min                      =   9.4742518926426E+03
(PID.TID 0000.0001) %MON DYU_mean                     =   7.1004694583927E+04
(PID.TID 0000.0001) %MON DYU_sd                       =   2.6575655787476E+04
(PID.TID 0000.0001) %MON RA_max                       =   1.1896090857160E+10
(PID.TID 0000.0001) %MON RA_min                       =   2.1263387742345E+08
(PID.TID 0000.0001) %MON RA_mean                      =   5.6344293572480E+09
(PID.TID 0000.0001) %MON RA_sd                        =   3.5929461176606E+09
(PID.TID 0000.0001) %MON RAW_max                      =   1.1896090856781E+10
(PID.TID 0000.0001) %MON RAW_min                      =   1.7369571508711E+08
(PID.TID 0000.0001) %MON RAW_mean                     =   5.6355850434318E+09
(PID.TID 0000.0001) %MON RAW_sd                       =   3.5915487677190E+09
(PID.TID 0000.0001) %MON RAS_max                      =   1.1896090856781E+10
(PID.TID 0000.0001) %MON RAS_min                      =   1.7369571508711E+08
(PID.TID 0000.0001) %MON RAS_mean                     =   5.6320332286162E+09
(PID.TID 0000.0001) %MON RAS_sd                       =   3.5937184228135E+09
(PID.TID 0000.0001) %MON RAZ_max                      =   1.1891903479271E+10
(PID.TID 0000.0001) %MON RAZ_min                      =   1.0413402423292E+08
(PID.TID 0000.0001) %MON RAZ_mean                     =   5.6331824674695E+09
(PID.TID 0000.0001) %MON RAZ_sd                       =   3.5923307220197E+09
(PID.TID 0000.0001) %MON AngleCS_max                  =   1.0000000000000E+00
(PID.TID 0000.0001) %MON AngleCS_min                  =  -9.9996641938864E-01
(PID.TID 0000.0001) %MON AngleCS_mean                 =   4.0572930529500E-01
(PID.TID 0000.0001) %MON AngleCS_sd                   =   5.3874397836718E-01
(PID.TID 0000.0001) %MON AngleSN_max                  =   9.9996641938864E-01
(PID.TID 0000.0001) %MON AngleSN_min                  =  -1.0000000000000E+00
(PID.TID 0000.0001) %MON AngleSN_mean                 =  -4.9986154624599E-01
(PID.TID 0000.0001) %MON AngleSN_sd                   =   5.4339404779819E-01
(PID.TID 0000.0001) GAD_INIT_FIXED: GAD_OlMinSize=  2  0  2
(PID.TID 0000.0001) 
(PID.TID 0000.0001) // ===================================
(PID.TID 0000.0001) // GAD parameters :
(PID.TID 0000.0001) // ===================================
(PID.TID 0000.0001) tempAdvScheme =   /* Temp. Horiz.Advection scheme selector */
(PID.TID 0000.0001)                      30
(PID.TID 0000.0001)     ;
(PID.TID 0000.0001) tempVertAdvScheme =   /* Temp. Vert. Advection scheme selector */
(PID.TID 0000.0001)                       3
(PID.TID 0000.0001)     ;
(PID.TID 0000.0001) tempMultiDimAdvec =   /* use Muti-Dim Advec method for Temp */
(PID.TID 0000.0001)                   T
(PID.TID 0000.0001)     ;
(PID.TID 0000.0001) tempSOM_Advection = /* use 2nd Order Moment Advection for Temp */
(PID.TID 0000.0001)                   F
(PID.TID 0000.0001)     ;
(PID.TID 0000.0001) AdamsBashforthGt = /* apply Adams-Bashforth extrapolation on Gt */
(PID.TID 0000.0001)                   F
(PID.TID 0000.0001)     ;
(PID.TID 0000.0001) AdamsBashforth_T = /* apply Adams-Bashforth extrapolation on Temp */
(PID.TID 0000.0001)                   F
(PID.TID 0000.0001)     ;
(PID.TID 0000.0001) saltAdvScheme =   /* Salt. Horiz.advection scheme selector */
(PID.TID 0000.0001)                      30
(PID.TID 0000.0001)     ;
(PID.TID 0000.0001) saltVertAdvScheme =   /* Salt. Vert. Advection scheme selector */
(PID.TID 0000.0001)                       3
(PID.TID 0000.0001)     ;
(PID.TID 0000.0001) saltMultiDimAdvec =   /* use Muti-Dim Advec method for Salt */
(PID.TID 0000.0001)                   T
(PID.TID 0000.0001)     ;
(PID.TID 0000.0001) saltSOM_Advection = /* use 2nd Order Moment Advection for Salt */
(PID.TID 0000.0001)                   F
(PID.TID 0000.0001)     ;
(PID.TID 0000.0001) AdamsBashforthGs = /* apply Adams-Bashforth extrapolation on Gs */
(PID.TID 0000.0001)                   F
(PID.TID 0000.0001)     ;
(PID.TID 0000.0001) AdamsBashforth_S = /* apply Adams-Bashforth extrapolation on Salt */
(PID.TID 0000.0001)                   F
(PID.TID 0000.0001)     ;
(PID.TID 0000.0001) // ===================================
(PID.TID 0000.0001) ------------------------------------------------------------
(PID.TID 0000.0001) DIAGNOSTICS_SET_LEVELS: done
(PID.TID 0000.0001)  Total Nb of available Diagnostics: ndiagt=   205
(PID.TID 0000.0001)  write list of available Diagnostics to file: available_diagnostics.log
(PID.TID 0000.0001) SETDIAG: Allocate  1 x  1 Levels for Diagnostic #    23 ETAN
(PID.TID 0000.0001) SETDIAG: Allocate  1 x  1 Levels for Diagnostic #    25 DETADT2
(PID.TID 0000.0001) SETDIAG: Allocate  1 x  1 Levels for Diagnostic #    73 PHIBOT
(PID.TID 0000.0001) SETDIAG: Allocate  1 x  1 Levels for Diagnostic #    77 MXLDEPTH
(PID.TID 0000.0001) SETDIAG: Allocate  1 x  1 Levels for Diagnostic #   205 oceSPDep
(PID.TID 0000.0001) SETDIAG: Allocate  1 x  1 Levels for Diagnostic #    86 oceQnet
(PID.TID 0000.0001) SETDIAG: Allocate  1 x  1 Levels for Diagnostic #    84 oceFWflx
(PID.TID 0000.0001) SETDIAG: Allocate  1 x  1 Levels for Diagnostic #    80 oceTAUX
(PID.TID 0000.0001) SETDIAG: Allocate  1 x  1 Levels for Diagnostic #    81 oceTAUY
(PID.TID 0000.0001) SETDIAG: Allocate 50 x  1 Levels for Diagnostic #    26 THETA
(PID.TID 0000.0001) SETDIAG: Allocate 50 x  1 Levels for Diagnostic #    27 SALT
(PID.TID 0000.0001) SETDIAG: Allocate 50 x  1 Levels for Diagnostic #    78 DRHODR
(PID.TID 0000.0001) SETDIAG: Allocate 50 x  1 Levels for Diagnostic #    45 UVELMASS
(PID.TID 0000.0001) SETDIAG: Allocate 50 x  1 Levels for Diagnostic #    46 VVELMASS
(PID.TID 0000.0001) SETDIAG: Allocate 50 x  1 Levels for Diagnostic #    47 WVELMASS
(PID.TID 0000.0001) SETDIAG: Allocate 50 x  1 Levels for Diagnostic #   195 GM_PsiX
(PID.TID 0000.0001) SETDIAG: Allocate 50 x  1 Levels for Diagnostic #   196 GM_PsiY
(PID.TID 0000.0001) SETDIAG: Allocate 50 x  1 Levels for Diagnostic #   114 DFxE_TH
(PID.TID 0000.0001) SETDIAG: Allocate 50 x  1 Levels for Diagnostic #   115 DFyE_TH
(PID.TID 0000.0001) SETDIAG: Allocate 50 x  1 Levels for Diagnostic #   111 ADVx_TH
(PID.TID 0000.0001) SETDIAG: Allocate 50 x  1 Levels for Diagnostic #   112 ADVy_TH
(PID.TID 0000.0001) SETDIAG: Allocate 50 x  1 Levels for Diagnostic #   121 DFxE_SLT
(PID.TID 0000.0001) SETDIAG: Allocate 50 x  1 Levels for Diagnostic #   122 DFyE_SLT
(PID.TID 0000.0001) SETDIAG: Allocate 50 x  1 Levels for Diagnostic #   118 ADVx_SLT
(PID.TID 0000.0001) SETDIAG: Allocate 50 x  1 Levels for Diagnostic #   119 ADVy_SLT
(PID.TID 0000.0001)   space allocated for all diagnostics:     809 levels
(PID.TID 0000.0001)   set mate pointer for diag #    80  oceTAUX  , Parms: UU      U1 , mate:    81
(PID.TID 0000.0001)   set mate pointer for diag #    81  oceTAUY  , Parms: VV      U1 , mate:    80
(PID.TID 0000.0001)   set mate pointer for diag #    45  UVELMASS , Parms: UUr     MR , mate:    46
(PID.TID 0000.0001)   set mate pointer for diag #    46  VVELMASS , Parms: VVr     MR , mate:    45
(PID.TID 0000.0001)   set mate pointer for diag #   195  GM_PsiX  , Parms: UU      LR , mate:   196
(PID.TID 0000.0001)   set mate pointer for diag #   196  GM_PsiY  , Parms: VV      LR , mate:   195
(PID.TID 0000.0001)   set mate pointer for diag #   114  DFxE_TH  , Parms: UU      MR , mate:   115
(PID.TID 0000.0001)   set mate pointer for diag #   115  DFyE_TH  , Parms: VV      MR , mate:   114
(PID.TID 0000.0001)   set mate pointer for diag #   111  ADVx_TH  , Parms: UU      MR , mate:   112
(PID.TID 0000.0001)   set mate pointer for diag #   112  ADVy_TH  , Parms: VV      MR , mate:   111
(PID.TID 0000.0001)   set mate pointer for diag #   121  DFxE_SLT , Parms: UU      MR , mate:   122
(PID.TID 0000.0001)   set mate pointer for diag #   122  DFyE_SLT , Parms: VV      MR , mate:   121
(PID.TID 0000.0001)   set mate pointer for diag #   118  ADVx_SLT , Parms: UU      MR , mate:   119
(PID.TID 0000.0001)   set mate pointer for diag #   119  ADVy_SLT , Parms: VV      MR , mate:   118
(PID.TID 0000.0001) DIAGNOSTICS_SET_POINTERS: Set levels for Outp.Stream: state_2d_set1
(PID.TID 0000.0001)  Levels:       1.
(PID.TID 0000.0001) DIAGNOSTICS_SET_POINTERS: Set levels for Outp.Stream: state_3d_set1
(PID.TID 0000.0001)  Levels:       1.   2.   3.   4.   5.   6.   7.   8.   9.  10.  11.  12.  13.  14.  15.  16.  17.  18.  19.  20.
(PID.TID 0000.0001)  Levels:      21.  22.  23.  24.  25.  26.  27.  28.  29.  30.  31.  32.  33.  34.  35.  36.  37.  38.  39.  40.
(PID.TID 0000.0001)  Levels:      41.  42.  43.  44.  45.  46.  47.  48.  49.  50.
(PID.TID 0000.0001) DIAGNOSTICS_SET_POINTERS: Set levels for Outp.Stream: trsp_3d_set1
(PID.TID 0000.0001)  Levels:       1.   2.   3.   4.   5.   6.   7.   8.   9.  10.  11.  12.  13.  14.  15.  16.  17.  18.  19.  20.
(PID.TID 0000.0001)  Levels:      21.  22.  23.  24.  25.  26.  27.  28.  29.  30.  31.  32.  33.  34.  35.  36.  37.  38.  39.  40.
(PID.TID 0000.0001)  Levels:      41.  42.  43.  44.  45.  46.  47.  48.  49.  50.
(PID.TID 0000.0001) DIAGNOSTICS_SET_POINTERS: Set levels for Outp.Stream: trsp_3d_set2
(PID.TID 0000.0001)  Levels:       1.   2.   3.   4.   5.   6.   7.   8.   9.  10.  11.  12.  13.  14.  15.  16.  17.  18.  19.  20.
(PID.TID 0000.0001)  Levels:      21.  22.  23.  24.  25.  26.  27.  28.  29.  30.  31.  32.  33.  34.  35.  36.  37.  38.  39.  40.
(PID.TID 0000.0001)  Levels:      41.  42.  43.  44.  45.  46.  47.  48.  49.  50.
(PID.TID 0000.0001) DIAGNOSTICS_SET_POINTERS: done
(PID.TID 0000.0001) ------------------------------------------------------------
(PID.TID 0000.0001) DIAGSTATS_SET_REGIONS: define   0 regions:
(PID.TID 0000.0001) ------------------------------------------------------------
(PID.TID 0000.0001)   space allocated for all stats-diags:       0 levels
(PID.TID 0000.0001) DIAGSTATS_SET_POINTERS: done
(PID.TID 0000.0001) ------------------------------------------------------------
(PID.TID 0000.0001) INI_GLOBAL_DOMAIN: Found   0 CS-corner Pts in the domain
(PID.TID 0000.0001) %MON fCori_max                    =   1.4584096177006E-04
(PID.TID 0000.0001) %MON fCori_min                    =  -1.4429171327635E-04
(PID.TID 0000.0001) %MON fCori_mean                   =  -1.9531894197173E-06
(PID.TID 0000.0001) %MON fCori_sd                     =   1.0434730642309E-04
(PID.TID 0000.0001) %MON fCoriG_max                   =   1.4584247033981E-04
(PID.TID 0000.0001) %MON fCoriG_min                   =  -1.4435339896041E-04
(PID.TID 0000.0001) %MON fCoriG_mean                  =  -1.9303770726087E-06
(PID.TID 0000.0001) %MON fCoriG_sd                    =   1.0435958182593E-04
(PID.TID 0000.0001) %MON fCoriCos_max                 =   1.4584158744890E-04
(PID.TID 0000.0001) %MON fCoriCos_min                 =   6.6334365221135E-07
(PID.TID 0000.0001) %MON fCoriCos_mean                =   9.3876998486639E-05
(PID.TID 0000.0001) %MON fCoriCos_sd                  =   3.9559575367967E-05
(PID.TID 0000.0001) INI_CG2D: CG2D normalisation factor =  7.1522409280111305E-05
(PID.TID 0000.0001) INI_CG2D: cg2dTolerance = 7.112781640300954E-06 (Area=3.5801386115E+14)
(PID.TID 0000.0001) 
(PID.TID 0000.0001) // =======================================================
(PID.TID 0000.0001) // Model configuration
(PID.TID 0000.0001) // =======================================================
(PID.TID 0000.0001) //
(PID.TID 0000.0001) // "Physical" paramters ( PARM01 in namelist )
(PID.TID 0000.0001) //
(PID.TID 0000.0001) buoyancyRelation = /* Type of relation to get Buoyancy */
(PID.TID 0000.0001)               'OCEANIC'
(PID.TID 0000.0001)     ;
(PID.TID 0000.0001) fluidIsAir   =  /* fluid major constituent is Air */
(PID.TID 0000.0001)                   F
(PID.TID 0000.0001)     ;
(PID.TID 0000.0001) fluidIsWater =  /* fluid major constituent is Water */
(PID.TID 0000.0001)                   T
(PID.TID 0000.0001)     ;
(PID.TID 0000.0001) usingPCoords =  /* use p (or p*) vertical coordinate */
(PID.TID 0000.0001)                   F
(PID.TID 0000.0001)     ;
(PID.TID 0000.0001) usingZCoords =  /* use z (or z*) vertical coordinate */
(PID.TID 0000.0001)                   T
(PID.TID 0000.0001)     ;
(PID.TID 0000.0001) tRef =   /* Reference temperature profile ( oC or K ) */
(PID.TID 0000.0001)     3 @  2.300000000000000E+01,             /* K =  1:  3 */
(PID.TID 0000.0001)     3 @  2.200000000000000E+01,             /* K =  4:  6 */
(PID.TID 0000.0001)                 2.100000000000000E+01,      /* K =  7 */
(PID.TID 0000.0001)     2 @  2.000000000000000E+01,             /* K =  8:  9 */
(PID.TID 0000.0001)                 1.900000000000000E+01,      /* K = 10 */
(PID.TID 0000.0001)     2 @  1.800000000000000E+01,             /* K = 11: 12 */
(PID.TID 0000.0001)                 1.700000000000000E+01,      /* K = 13 */
(PID.TID 0000.0001)     2 @  1.600000000000000E+01,             /* K = 14: 15 */
(PID.TID 0000.0001)                 1.500000000000000E+01,      /* K = 16 */
(PID.TID 0000.0001)                 1.400000000000000E+01,      /* K = 17 */
(PID.TID 0000.0001)                 1.300000000000000E+01,      /* K = 18 */
(PID.TID 0000.0001)                 1.200000000000000E+01,      /* K = 19 */
(PID.TID 0000.0001)                 1.100000000000000E+01,      /* K = 20 */
(PID.TID 0000.0001)     2 @  9.000000000000000E+00,             /* K = 21: 22 */
(PID.TID 0000.0001)                 8.000000000000000E+00,      /* K = 23 */
(PID.TID 0000.0001)                 7.000000000000000E+00,      /* K = 24 */
(PID.TID 0000.0001)     2 @  6.000000000000000E+00,             /* K = 25: 26 */
(PID.TID 0000.0001)     2 @  5.000000000000000E+00,             /* K = 27: 28 */
(PID.TID 0000.0001)     3 @  4.000000000000000E+00,             /* K = 29: 31 */
(PID.TID 0000.0001)     3 @  3.000000000000000E+00,             /* K = 32: 34 */
(PID.TID 0000.0001)     4 @  2.000000000000000E+00,             /* K = 35: 38 */
(PID.TID 0000.0001)    12 @  1.000000000000000E+00              /* K = 39: 50 */
(PID.TID 0000.0001)     ;
(PID.TID 0000.0001) sRef =   /* Reference salinity profile ( psu ) */
(PID.TID 0000.0001)    50 @  3.450000000000000E+01              /* K =  1: 50 */
(PID.TID 0000.0001)     ;
(PID.TID 0000.0001) useStrainTensionVisc= /* Use StrainTension Form of Viscous Operator */
(PID.TID 0000.0001)                   F
(PID.TID 0000.0001)     ;
(PID.TID 0000.0001) useVariableVisc = /* Use variable horizontal viscosity */
(PID.TID 0000.0001)                   T
(PID.TID 0000.0001)     ;
(PID.TID 0000.0001) useHarmonicVisc = /* Use harmonic horizontal viscosity */
(PID.TID 0000.0001)                   T
(PID.TID 0000.0001)     ;
(PID.TID 0000.0001) useBiharmonicVisc= /* Use biharmonic horiz.  viscosity */
(PID.TID 0000.0001)                   T
(PID.TID 0000.0001)     ;
(PID.TID 0000.0001) useSmag3D = /* Use isotropic 3-D Smagorinsky viscosity */
(PID.TID 0000.0001)                   F
(PID.TID 0000.0001)     ;
(PID.TID 0000.0001) viscAh  =   /* Lateral harmonic viscosity ( m^2/s ) */
(PID.TID 0000.0001)                 1.000000000000000E+00
(PID.TID 0000.0001)     ;
(PID.TID 0000.0001) viscAhMax = /* Maximum lateral harmonic viscosity ( m^2/s ) */
(PID.TID 0000.0001)                 1.000000000000000E+21
(PID.TID 0000.0001)     ;
(PID.TID 0000.0001) viscAhGrid = /* Grid dependent lateral harmonic viscosity ( non-dim. ) */
(PID.TID 0000.0001)                 2.000000000000000E-02
(PID.TID 0000.0001)     ;
(PID.TID 0000.0001) useFullLeith = /* Use Full Form of Leith Viscosity on/off flag*/
(PID.TID 0000.0001)                   F
(PID.TID 0000.0001)     ;
(PID.TID 0000.0001) useAreaViscLength = /* Use area for visc length instead of geom. mean*/
(PID.TID 0000.0001)                   F
(PID.TID 0000.0001)     ;
(PID.TID 0000.0001) viscC2leith = /* Leith harmonic visc. factor (on grad(vort),non-dim.) */
(PID.TID 0000.0001)                 0.000000000000000E+00
(PID.TID 0000.0001)     ;
(PID.TID 0000.0001) viscC2leithD = /* Leith harmonic viscosity factor (on grad(div),non-dim.)*/
(PID.TID 0000.0001)                 0.000000000000000E+00
(PID.TID 0000.0001)     ;
(PID.TID 0000.0001) viscC2smag = /* Smagorinsky harmonic viscosity factor (non-dim.) */
(PID.TID 0000.0001)                 0.000000000000000E+00
(PID.TID 0000.0001)     ;
(PID.TID 0000.0001) viscA4  =   /* Lateral biharmonic viscosity ( m^4/s ) */
(PID.TID 0000.0001)                 0.000000000000000E+00
(PID.TID 0000.0001)     ;
(PID.TID 0000.0001) viscA4Max = /* Maximum biharmonic viscosity ( m^2/s ) */
(PID.TID 0000.0001)                 1.000000000000000E+21
(PID.TID 0000.0001)     ;
(PID.TID 0000.0001) viscA4Grid = /* Grid dependent biharmonic viscosity ( non-dim. ) */
(PID.TID 0000.0001)                 0.000000000000000E+00
(PID.TID 0000.0001)     ;
(PID.TID 0000.0001) viscC4leith = /* Leith biharm viscosity factor (on grad(vort), non-dim.)*/
(PID.TID 0000.0001)                 0.000000000000000E+00
(PID.TID 0000.0001)     ;
(PID.TID 0000.0001) viscC4leithD = /* Leith biharm viscosity factor (on grad(div), non-dim.) */
(PID.TID 0000.0001)                 0.000000000000000E+00
(PID.TID 0000.0001)     ;
(PID.TID 0000.0001) viscC4Smag = /* Smagorinsky biharm viscosity factor (non-dim) */
(PID.TID 0000.0001)                 0.000000000000000E+00
(PID.TID 0000.0001)     ;
(PID.TID 0000.0001) no_slip_sides =  /* Viscous BCs: No-slip sides */
(PID.TID 0000.0001)                   T
(PID.TID 0000.0001)     ;
(PID.TID 0000.0001) sideDragFactor = /* side-drag scaling factor (non-dim) */
(PID.TID 0000.0001)                 2.000000000000000E+00
(PID.TID 0000.0001)     ;
(PID.TID 0000.0001) viscArNr = /* vertical profile of vertical viscosity ( m^2/s )*/
(PID.TID 0000.0001)    50 @  5.000000000000000E-05              /* K =  1: 50 */
(PID.TID 0000.0001)     ;
(PID.TID 0000.0001) no_slip_bottom =  /* Viscous BCs: No-slip bottom */
(PID.TID 0000.0001)                   T
(PID.TID 0000.0001)     ;
(PID.TID 0000.0001) bottomVisc_pCell = /* Partial-cell in bottom Visc. BC */
(PID.TID 0000.0001)                   F
(PID.TID 0000.0001)     ;
(PID.TID 0000.0001) bottomDragLinear = /* linear bottom-drag coefficient ( m/s ) */
(PID.TID 0000.0001)                 0.000000000000000E+00
(PID.TID 0000.0001)     ;
(PID.TID 0000.0001) bottomDragQuadratic = /* quadratic bottom-drag coefficient (-) */
(PID.TID 0000.0001)                 1.000000000000000E-03
(PID.TID 0000.0001)     ;
(PID.TID 0000.0001) selectBotDragQuadr = /* select quadratic bottom drag options */
(PID.TID 0000.0001)                       0
(PID.TID 0000.0001)     ;
(PID.TID 0000.0001) diffKhT =   /* Laplacian diffusion of heat laterally ( m^2/s ) */
(PID.TID 0000.0001)                 1.000000000000000E+01
(PID.TID 0000.0001)     ;
(PID.TID 0000.0001) diffK4T =   /* Biharmonic diffusion of heat laterally ( m^4/s ) */
(PID.TID 0000.0001)                 0.000000000000000E+00
(PID.TID 0000.0001)     ;
(PID.TID 0000.0001) diffKhS =   /* Laplacian diffusion of salt laterally ( m^2/s ) */
(PID.TID 0000.0001)                 1.000000000000000E+01
(PID.TID 0000.0001)     ;
(PID.TID 0000.0001) diffK4S =   /* Biharmonic diffusion of salt laterally ( m^4/s ) */
(PID.TID 0000.0001)                 0.000000000000000E+00
(PID.TID 0000.0001)     ;
(PID.TID 0000.0001) diffKrNrT = /* vertical profile of vertical diffusion of Temp ( m^2/s )*/
(PID.TID 0000.0001)    50 @  1.000000000000000E-05              /* K =  1: 50 */
(PID.TID 0000.0001)     ;
(PID.TID 0000.0001) diffKrNrS = /* vertical profile of vertical diffusion of Salt ( m^2/s )*/
(PID.TID 0000.0001)    50 @  1.000000000000000E-05              /* K =  1: 50 */
(PID.TID 0000.0001)     ;
(PID.TID 0000.0001) diffKrBL79surf = /* Surface diffusion for Bryan and Lewis 79 ( m^2/s ) */
(PID.TID 0000.0001)                 0.000000000000000E+00
(PID.TID 0000.0001)     ;
(PID.TID 0000.0001) diffKrBL79deep = /* Deep diffusion for Bryan and Lewis 1979 ( m^2/s ) */
(PID.TID 0000.0001)                 0.000000000000000E+00
(PID.TID 0000.0001)     ;
(PID.TID 0000.0001) diffKrBL79scl = /* Depth scale for Bryan and Lewis 1979 ( m ) */
(PID.TID 0000.0001)                 2.000000000000000E+02
(PID.TID 0000.0001)     ;
(PID.TID 0000.0001) diffKrBL79Ho = /* Turning depth for Bryan and Lewis 1979 ( m ) */
(PID.TID 0000.0001)                -2.000000000000000E+03
(PID.TID 0000.0001)     ;
(PID.TID 0000.0001) ivdc_kappa = /* Implicit Vertical Diffusivity for Convection ( m^2/s) */
(PID.TID 0000.0001)                 1.000000000000000E+01
(PID.TID 0000.0001)     ;
(PID.TID 0000.0001) hMixCriteria=  /* Criteria for mixed-layer diagnostic */
(PID.TID 0000.0001)                -8.000000000000000E-01
(PID.TID 0000.0001)     ;
(PID.TID 0000.0001) dRhoSmall =  /* Parameter for mixed-layer diagnostic */
(PID.TID 0000.0001)                 1.000000000000000E-06
(PID.TID 0000.0001)     ;
(PID.TID 0000.0001) hMixSmooth=  /* Smoothing parameter for mixed-layer diagnostic */
(PID.TID 0000.0001)                 0.000000000000000E+00
(PID.TID 0000.0001)     ;
(PID.TID 0000.0001) eosType =  /* Type of Equation of State */
(PID.TID 0000.0001)               'JMD95Z'
(PID.TID 0000.0001)     ;
(PID.TID 0000.0001) selectP_inEOS_Zc = /* select pressure to use in EOS (0,1,2,3) */
(PID.TID 0000.0001)                       0
(PID.TID 0000.0001)     0= -g*rhoConst*z ; 1= pRef (from tRef,sRef); 2= Hyd P ; 3= Hyd+NH P
(PID.TID 0000.0001)     ;
(PID.TID 0000.0001) HeatCapacity_Cp =  /* Specific heat capacity ( J/kg/K ) */
(PID.TID 0000.0001)                 3.994000000000000E+03
(PID.TID 0000.0001)     ;
(PID.TID 0000.0001) celsius2K = /* 0 degree Celsius converted to Kelvin ( K ) */
(PID.TID 0000.0001)                 2.731500000000000E+02
(PID.TID 0000.0001)     ;
(PID.TID 0000.0001) rhoConst  = /* Reference density (Boussinesq)  ( kg/m^3 ) */
(PID.TID 0000.0001)                 1.029000000000000E+03
(PID.TID 0000.0001)     ;
(PID.TID 0000.0001) rhoFacC = /* normalized Reference density @ cell-Center (-) */
(PID.TID 0000.0001)    50 @  1.000000000000000E+00              /* K =  1: 50 */
(PID.TID 0000.0001)     ;
(PID.TID 0000.0001) rhoFacF = /* normalized Reference density @ W-Interface (-) */
(PID.TID 0000.0001)    51 @  1.000000000000000E+00              /* K =  1: 51 */
(PID.TID 0000.0001)     ;
(PID.TID 0000.0001) rhoConstFresh = /* Fresh-water reference density ( kg/m^3 ) */
(PID.TID 0000.0001)                 1.000000000000000E+03
(PID.TID 0000.0001)     ;
(PID.TID 0000.0001) gravity =   /* Gravitational acceleration ( m/s^2 ) */
(PID.TID 0000.0001)                 9.810000000000000E+00
(PID.TID 0000.0001)     ;
(PID.TID 0000.0001) gBaro =   /* Barotropic gravity ( m/s^2 ) */
(PID.TID 0000.0001)                 9.810000000000000E+00
(PID.TID 0000.0001)     ;
(PID.TID 0000.0001) gravFacC = /* gravity factor (vs surf.) @ cell-Center (-) */
(PID.TID 0000.0001)    50 @  1.000000000000000E+00              /* K =  1: 50 */
(PID.TID 0000.0001)     ;
(PID.TID 0000.0001) gravFacF = /* gravity factor (vs surf.) @ W-Interface (-) */
(PID.TID 0000.0001)    51 @  1.000000000000000E+00              /* K =  1: 51 */
(PID.TID 0000.0001)     ;
(PID.TID 0000.0001) rotationPeriod =   /* Rotation Period ( s ) */
(PID.TID 0000.0001)                 8.616400000000000E+04
(PID.TID 0000.0001)     ;
(PID.TID 0000.0001) omega =   /* Angular velocity ( rad/s ) */
(PID.TID 0000.0001)                 7.292123516990375E-05
(PID.TID 0000.0001)     ;
(PID.TID 0000.0001) f0 =   /* Reference coriolis parameter ( 1/s ) */
(PID.TID 0000.0001)                 1.000000000000000E-04
(PID.TID 0000.0001)     ;
(PID.TID 0000.0001) beta =   /* Beta ( 1/(m.s) ) */
(PID.TID 0000.0001)                 9.999999999999999E-12
(PID.TID 0000.0001)     ;
(PID.TID 0000.0001) fPrime =   /* Second coriolis parameter ( 1/s ) */
(PID.TID 0000.0001)                 0.000000000000000E+00
(PID.TID 0000.0001)     ;
(PID.TID 0000.0001) rigidLid =   /* Rigid lid on/off flag */
(PID.TID 0000.0001)                   F
(PID.TID 0000.0001)     ;
(PID.TID 0000.0001) implicitFreeSurface =   /* Implicit free surface on/off flag */
(PID.TID 0000.0001)                   T
(PID.TID 0000.0001)     ;
(PID.TID 0000.0001) freeSurfFac =   /* Implicit free surface factor */
(PID.TID 0000.0001)                 1.000000000000000E+00
(PID.TID 0000.0001)     ;
(PID.TID 0000.0001) implicSurfPress =  /* Surface Pressure implicit factor (0-1)*/
(PID.TID 0000.0001)                 1.000000000000000E+00
(PID.TID 0000.0001)     ;
(PID.TID 0000.0001) implicDiv2DFlow =  /* Barot. Flow Div. implicit factor (0-1)*/
(PID.TID 0000.0001)                 1.000000000000000E+00
(PID.TID 0000.0001)     ;
(PID.TID 0000.0001) uniformLin_PhiSurf = /* use uniform Bo_surf on/off flag*/
(PID.TID 0000.0001)                   T
(PID.TID 0000.0001)     ;
(PID.TID 0000.0001) uniformFreeSurfLev = /* free-surface level-index is uniform */
(PID.TID 0000.0001)                   T
(PID.TID 0000.0001)     ;
(PID.TID 0000.0001) hFacMin =   /* minimum partial cell factor (hFac) */
(PID.TID 0000.0001)                 2.000000000000000E-01
(PID.TID 0000.0001)     ;
(PID.TID 0000.0001) hFacMinDr = /* minimum partial cell thickness ( m) */
(PID.TID 0000.0001)                 5.000000000000000E+00
(PID.TID 0000.0001)     ;
(PID.TID 0000.0001) exactConserv =  /* Exact Volume Conservation on/off flag*/
(PID.TID 0000.0001)                   T
(PID.TID 0000.0001)     ;
(PID.TID 0000.0001) linFSConserveTr = /* Tracer correction for Lin Free Surface on/off flag*/
(PID.TID 0000.0001)                   F
(PID.TID 0000.0001)     ;
(PID.TID 0000.0001) nonlinFreeSurf = /* Non-linear Free Surf. options (-1,0,1,2,3)*/
(PID.TID 0000.0001)                       4
(PID.TID 0000.0001)      -1,0= Off ; 1,2,3= On, 2=+rescale gU,gV, 3=+update cg2d solv.
(PID.TID 0000.0001)     ;
(PID.TID 0000.0001) hFacInf =   /* lower threshold for hFac (nonlinFreeSurf only)*/
(PID.TID 0000.0001)                 2.000000000000000E-01
(PID.TID 0000.0001)     ;
(PID.TID 0000.0001) hFacSup =   /* upper threshold for hFac (nonlinFreeSurf only)*/
(PID.TID 0000.0001)                 2.000000000000000E+00
(PID.TID 0000.0001)     ;
(PID.TID 0000.0001) select_rStar = /* r* Vertical coord. options (=0 r coord.; >0 uses r*)*/
(PID.TID 0000.0001)                       2
(PID.TID 0000.0001)     ;
(PID.TID 0000.0001) useRealFreshWaterFlux = /* Real Fresh Water Flux on/off flag*/
(PID.TID 0000.0001)                   T
(PID.TID 0000.0001)     ;
(PID.TID 0000.0001) temp_EvPrRn = /* Temp. of Evap/Prec/R (UNSET=use local T)(oC)*/
(PID.TID 0000.0001)                 1.234567000000000E+05
(PID.TID 0000.0001)     ;
(PID.TID 0000.0001) salt_EvPrRn = /* Salin. of Evap/Prec/R (UNSET=use local S)(psu)*/
(PID.TID 0000.0001)                 0.000000000000000E+00
(PID.TID 0000.0001)     ;
(PID.TID 0000.0001) selectAddFluid = /* option for mass source/sink of fluid (=0: off) */
(PID.TID 0000.0001)                       0
(PID.TID 0000.0001)     ;
(PID.TID 0000.0001) temp_addMass = /* Temp. of addMass array (UNSET=use local T)(oC)*/
(PID.TID 0000.0001)                 1.234567000000000E+05
(PID.TID 0000.0001)     ;
(PID.TID 0000.0001) salt_addMass = /* Salin. of addMass array (UNSET=use local S)(psu)*/
(PID.TID 0000.0001)                 0.000000000000000E+00
(PID.TID 0000.0001)     ;
(PID.TID 0000.0001) use3Dsolver = /* use 3-D pressure solver on/off flag */
(PID.TID 0000.0001)                   F
(PID.TID 0000.0001)     ;
(PID.TID 0000.0001) nonHydrostatic =  /* Non-Hydrostatic on/off flag */
(PID.TID 0000.0001)                   F
(PID.TID 0000.0001)     ;
(PID.TID 0000.0001) nh_Am2 = /* Non-Hydrostatic terms scaling factor */
(PID.TID 0000.0001)                 1.000000000000000E+00
(PID.TID 0000.0001)     ;
(PID.TID 0000.0001) implicitNHPress = /* Non-Hyd Pressure implicit factor (0-1)*/
(PID.TID 0000.0001)                 1.000000000000000E+00
(PID.TID 0000.0001)     ;
(PID.TID 0000.0001) selectNHfreeSurf = /* Non-Hyd (free-)Surface option */
(PID.TID 0000.0001)                       0
(PID.TID 0000.0001)     ;
(PID.TID 0000.0001) quasiHydrostatic = /* Quasi-Hydrostatic on/off flag */
(PID.TID 0000.0001)                   F
(PID.TID 0000.0001)     ;
(PID.TID 0000.0001) calc_wVelocity = /* vertical velocity calculation on/off flag */
(PID.TID 0000.0001)                   T
(PID.TID 0000.0001)     ;
(PID.TID 0000.0001) momStepping =  /* Momentum equation on/off flag */
(PID.TID 0000.0001)                   T
(PID.TID 0000.0001)     ;
(PID.TID 0000.0001) vectorInvariantMomentum= /* Vector-Invariant Momentum on/off */
(PID.TID 0000.0001)                   T
(PID.TID 0000.0001)     ;
(PID.TID 0000.0001) momAdvection =  /* Momentum advection on/off flag */
(PID.TID 0000.0001)                   T
(PID.TID 0000.0001)     ;
(PID.TID 0000.0001) momViscosity =  /* Momentum viscosity on/off flag */
(PID.TID 0000.0001)                   T
(PID.TID 0000.0001)     ;
(PID.TID 0000.0001) momImplVertAdv= /* Momentum implicit vert. advection on/off*/
(PID.TID 0000.0001)                   F
(PID.TID 0000.0001)     ;
(PID.TID 0000.0001) implicitViscosity = /* Implicit viscosity on/off flag */
(PID.TID 0000.0001)                   T
(PID.TID 0000.0001)     ;
(PID.TID 0000.0001) selectImplicitDrag= /* Implicit bot Drag options (0,1,2)*/
(PID.TID 0000.0001)                       0
(PID.TID 0000.0001)     0= Expl. ; 1= Impl. on provis. Vel ; 2= Fully Impl (with surf.P)
(PID.TID 0000.0001)     ;
(PID.TID 0000.0001) metricTerms =  /* metric-Terms on/off flag */
(PID.TID 0000.0001)                   F
(PID.TID 0000.0001)     ;
(PID.TID 0000.0001) useNHMTerms = /* Non-Hydrostatic Metric-Terms on/off */
(PID.TID 0000.0001)                   F
(PID.TID 0000.0001)     ;
(PID.TID 0000.0001) selectCoriMap = /* Coriolis Map options (0,1,2,3)*/
(PID.TID 0000.0001)                       2
(PID.TID 0000.0001)     0= f-Plane ; 1= Beta-Plane ; 2= Spherical ; 3= read from file
(PID.TID 0000.0001)     ;
(PID.TID 0000.0001) use3dCoriolis = /* 3-D Coriolis on/off flag */
(PID.TID 0000.0001)                   F
(PID.TID 0000.0001)     ;
(PID.TID 0000.0001) useCoriolis =  /* Coriolis on/off flag */
(PID.TID 0000.0001)                   T
(PID.TID 0000.0001)     ;
(PID.TID 0000.0001) useCDscheme =  /* CD scheme on/off flag */
(PID.TID 0000.0001)                   F
(PID.TID 0000.0001)     ;
(PID.TID 0000.0001) useEnergyConservingCoriolis= /* Flx-Form Coriolis scheme flag */
(PID.TID 0000.0001)                   F
(PID.TID 0000.0001)     ;
(PID.TID 0000.0001) useJamartWetPoints= /* Coriolis WetPoints method flag */
(PID.TID 0000.0001)                   T
(PID.TID 0000.0001)     ;
(PID.TID 0000.0001) useJamartMomAdv= /* V.I Non-linear terms Jamart flag */
(PID.TID 0000.0001)                   F
(PID.TID 0000.0001)     ;
(PID.TID 0000.0001) useAbsVorticity= /* V.I Works with f+zeta in Coriolis */
(PID.TID 0000.0001)                   F
(PID.TID 0000.0001)     ;
(PID.TID 0000.0001) selectVortScheme= /* V.I Scheme selector for Vorticity-Term */
(PID.TID 0000.0001)                       1
(PID.TID 0000.0001)    = 0 : enstrophy (Shallow-Water Eq.) conserving scheme by Sadourny, JAS 75
(PID.TID 0000.0001)    = 1 : same as 0 with modified hFac
(PID.TID 0000.0001)    = 2 : energy conserving scheme (used by Sadourny in JAS 75 paper)
(PID.TID 0000.0001)    = 3 : energy (general) and enstrophy (2D, nonDiv.) conserving scheme
(PID.TID 0000.0001)          from Sadourny (Burridge & Haseler, ECMWF Rep.4, 1977)
(PID.TID 0000.0001)     ;
(PID.TID 0000.0001) upwindVorticity= /* V.I Upwind bias vorticity flag */
(PID.TID 0000.0001)                   F
(PID.TID 0000.0001)     ;
(PID.TID 0000.0001) highOrderVorticity= /* V.I High order vort. advect. flag */
(PID.TID 0000.0001)                   F
(PID.TID 0000.0001)     ;
(PID.TID 0000.0001) upwindShear= /* V.I Upwind vertical Shear advection flag */
(PID.TID 0000.0001)                   F
(PID.TID 0000.0001)     ;
(PID.TID 0000.0001) selectKEscheme= /* V.I Kinetic Energy scheme selector */
(PID.TID 0000.0001)                       0
(PID.TID 0000.0001)     ;
(PID.TID 0000.0001) momForcing =  /* Momentum forcing on/off flag */
(PID.TID 0000.0001)                   T
(PID.TID 0000.0001)     ;
(PID.TID 0000.0001) momPressureForcing =  /* Momentum pressure term on/off flag */
(PID.TID 0000.0001)                   T
(PID.TID 0000.0001)     ;
(PID.TID 0000.0001) implicitIntGravWave= /* Implicit Internal Gravity Wave flag */
(PID.TID 0000.0001)                   F
(PID.TID 0000.0001)     ;
(PID.TID 0000.0001) staggerTimeStep =    /* Stagger time stepping on/off flag */
(PID.TID 0000.0001)                   T
(PID.TID 0000.0001)     ;
(PID.TID 0000.0001) doResetHFactors = /* reset thickness factors @ each time-step */
(PID.TID 0000.0001)                   F
(PID.TID 0000.0001)     ;
(PID.TID 0000.0001) multiDimAdvection =  /* enable/disable Multi-Dim Advection */
(PID.TID 0000.0001)                   T
(PID.TID 0000.0001)     ;
(PID.TID 0000.0001) useMultiDimAdvec =   /* Multi-Dim Advection is/is-not used */
(PID.TID 0000.0001)                   T
(PID.TID 0000.0001)     ;
(PID.TID 0000.0001) implicitDiffusion = /* Implicit Diffusion on/off flag */
(PID.TID 0000.0001)                   T
(PID.TID 0000.0001)     ;
(PID.TID 0000.0001) tempStepping =  /* Temperature equation on/off flag */
(PID.TID 0000.0001)                   T
(PID.TID 0000.0001)     ;
(PID.TID 0000.0001) tempAdvection = /* Temperature advection on/off flag */
(PID.TID 0000.0001)                   T
(PID.TID 0000.0001)     ;
(PID.TID 0000.0001) tempImplVertAdv = /* Temp. implicit vert. advection on/off */
(PID.TID 0000.0001)                   T
(PID.TID 0000.0001)     ;
(PID.TID 0000.0001) tempForcing  =  /* Temperature forcing on/off flag */
(PID.TID 0000.0001)                   T
(PID.TID 0000.0001)     ;
(PID.TID 0000.0001) balanceQnet  =  /* balance net heat-flux on/off flag */
(PID.TID 0000.0001)                   F
(PID.TID 0000.0001)     ;
(PID.TID 0000.0001) doThetaClimRelax = /* apply SST relaxation on/off flag */
(PID.TID 0000.0001)                   F
(PID.TID 0000.0001)     ;
(PID.TID 0000.0001) balanceThetaClimRelax= /* balance SST relaxation on/off flag */
(PID.TID 0000.0001)                   F
(PID.TID 0000.0001)     ;
(PID.TID 0000.0001) tempIsActiveTr = /* Temp. is a dynamically Active Tracer */
(PID.TID 0000.0001)                   T
(PID.TID 0000.0001)     ;
(PID.TID 0000.0001) saltStepping =  /* Salinity equation on/off flag */
(PID.TID 0000.0001)                   T
(PID.TID 0000.0001)     ;
(PID.TID 0000.0001) saltAdvection = /* Salinity advection on/off flag */
(PID.TID 0000.0001)                   T
(PID.TID 0000.0001)     ;
(PID.TID 0000.0001) saltImplVertAdv = /* Sali. implicit vert. advection on/off */
(PID.TID 0000.0001)                   T
(PID.TID 0000.0001)     ;
(PID.TID 0000.0001) saltForcing  =  /* Salinity forcing on/off flag */
(PID.TID 0000.0001)                   T
(PID.TID 0000.0001)     ;
(PID.TID 0000.0001) balanceEmPmR =  /* balance net fresh-water flux on/off flag */
(PID.TID 0000.0001)                   F
(PID.TID 0000.0001)     ;
(PID.TID 0000.0001) doSaltClimRelax = /* apply SSS relaxation on/off flag */
(PID.TID 0000.0001)                   F
(PID.TID 0000.0001)     ;
(PID.TID 0000.0001) balanceSaltClimRelax= /* balance SSS relaxation on/off flag */
(PID.TID 0000.0001)                   T
(PID.TID 0000.0001)     ;
(PID.TID 0000.0001) saltIsActiveTr = /* Salt  is a dynamically Active Tracer */
(PID.TID 0000.0001)                   T
(PID.TID 0000.0001)     ;
(PID.TID 0000.0001)  readBinaryPrec = /* Precision used for reading binary files */
(PID.TID 0000.0001)                      32
(PID.TID 0000.0001)     ;
(PID.TID 0000.0001) writeBinaryPrec = /* Precision used for writing binary files */
(PID.TID 0000.0001)                      32
(PID.TID 0000.0001)     ;
(PID.TID 0000.0001)  rwSuffixType =   /* select format of mds file suffix */
(PID.TID 0000.0001)                       0
(PID.TID 0000.0001)    = 0 : myIter (I10.10) ;   = 1 : 100*myTime (100th sec) ;
(PID.TID 0000.0001)    = 2 : myTime (seconds);   = 3 : myTime/360 (10th of hr);
(PID.TID 0000.0001)    = 4 : myTime/3600 (hours)
(PID.TID 0000.0001)     ;
(PID.TID 0000.0001)  globalFiles = /* write "global" (=not per tile) files */
(PID.TID 0000.0001)                   F
(PID.TID 0000.0001)     ;
(PID.TID 0000.0001)  useSingleCpuIO = /* only master MPI process does I/O */
(PID.TID 0000.0001)                   T
(PID.TID 0000.0001)     ;
(PID.TID 0000.0001)  useSingleCpuInput = /* only master process reads input */
(PID.TID 0000.0001)                   T
(PID.TID 0000.0001)     ;
(PID.TID 0000.0001) /* debLev[*]  : level of debug & auxiliary message printing */
(PID.TID 0000.0001) debLevZero =  0 ; /* level of disabled aux. msg printing */
(PID.TID 0000.0001)    debLevA =  1 ; /* level of minimum  aux. msg printing */
(PID.TID 0000.0001)    debLevB =  2 ; /* level of low aux. print (report read-file opening)*/
(PID.TID 0000.0001)    debLevC =  3 ; /* level of moderate debug prt (most pkgs debug msg) */
(PID.TID 0000.0001)    debLevD =  4 ; /* level of enhanced debug prt (add DEBUG_STATS prt) */
(PID.TID 0000.0001)    debLevE =  5 ; /* level of extensive debug printing */
(PID.TID 0000.0001) debugLevel =  /* select debug printing level */
(PID.TID 0000.0001)                       1
(PID.TID 0000.0001)     ;
(PID.TID 0000.0001)  plotLevel =  /* select PLOT_FIELD printing level */
(PID.TID 0000.0001)                       1
(PID.TID 0000.0001)     ;
(PID.TID 0000.0001) //
(PID.TID 0000.0001) // Elliptic solver(s) paramters ( PARM02 in namelist )
(PID.TID 0000.0001) //
(PID.TID 0000.0001) cg2dMaxIters =   /* Upper limit on 2d con. grad iterations  */
(PID.TID 0000.0001)                     300
(PID.TID 0000.0001)     ;
(PID.TID 0000.0001) cg2dChkResFreq =   /* 2d con. grad convergence test frequency */
(PID.TID 0000.0001)                       1
(PID.TID 0000.0001)     ;
(PID.TID 0000.0001) cg2dUseMinResSol= /* use cg2d last-iter(=0) / min-resid.(=1) solution */
(PID.TID 0000.0001)                       0
(PID.TID 0000.0001)     ;
(PID.TID 0000.0001) cg2dTargetResidual =   /* 2d con. grad target residual  */
(PID.TID 0000.0001)                 1.000000000000000E-07
(PID.TID 0000.0001)     ;
(PID.TID 0000.0001) cg2dTargetResWunit =   /* CG2d target residual [W units] */
(PID.TID 0000.0001)                 1.000000000000000E-12
(PID.TID 0000.0001)     ;
(PID.TID 0000.0001) cg2dPreCondFreq =   /* Freq. for updating cg2d preconditioner */
(PID.TID 0000.0001)                       1
(PID.TID 0000.0001)     ;
(PID.TID 0000.0001) useSRCGSolver =  /* use single reduction CG solver(s) */
(PID.TID 0000.0001)                   F
(PID.TID 0000.0001)     ;
(PID.TID 0000.0001) printResidualFreq = /* Freq. for printing CG residual */
(PID.TID 0000.0001)                       0
(PID.TID 0000.0001)     ;
(PID.TID 0000.0001) //
(PID.TID 0000.0001) // Time stepping paramters ( PARM03 in namelist )
(PID.TID 0000.0001) //
(PID.TID 0000.0001) deltaTMom =   /* Momentum equation timestep ( s ) */
(PID.TID 0000.0001)                 3.600000000000000E+03
(PID.TID 0000.0001)     ;
(PID.TID 0000.0001) deltaTFreeSurf = /* FreeSurface equation timestep ( s ) */
(PID.TID 0000.0001)                 3.600000000000000E+03
(PID.TID 0000.0001)     ;
(PID.TID 0000.0001) dTtracerLev =  /* Tracer equation timestep ( s ) */
(PID.TID 0000.0001)    50 @  3.600000000000000E+03              /* K =  1: 50 */
(PID.TID 0000.0001)     ;
(PID.TID 0000.0001) deltaTClock  =   /* Model clock timestep ( s ) */
(PID.TID 0000.0001)                 3.600000000000000E+03
(PID.TID 0000.0001)     ;
(PID.TID 0000.0001) cAdjFreq =   /* Convective adjustment interval ( s ) */
(PID.TID 0000.0001)                 0.000000000000000E+00
(PID.TID 0000.0001)     ;
(PID.TID 0000.0001) momForcingOutAB = /* =1: take Momentum Forcing out of Adams-Bash. stepping */
(PID.TID 0000.0001)                       1
(PID.TID 0000.0001)     ;
(PID.TID 0000.0001) tracForcingOutAB = /* =1: take T,S,pTr Forcing out of Adams-Bash. stepping */
(PID.TID 0000.0001)                       1
(PID.TID 0000.0001)     ;
(PID.TID 0000.0001) momDissip_In_AB = /* put Dissipation Tendency in Adams-Bash. stepping */
(PID.TID 0000.0001)                   F
(PID.TID 0000.0001)     ;
(PID.TID 0000.0001) doAB_onGtGs = /* apply AB on Tendencies (rather than on T,S)*/
(PID.TID 0000.0001)                   T
(PID.TID 0000.0001)     ;
(PID.TID 0000.0001) abEps =   /* Adams-Bashforth-2 stabilizing weight */
(PID.TID 0000.0001)                 1.000000000000000E-01
(PID.TID 0000.0001)     ;
(PID.TID 0000.0001) applyExchUV_early = /* Apply EXCH to U,V earlier in time-step */
(PID.TID 0000.0001)                   F
(PID.TID 0000.0001)     ;
(PID.TID 0000.0001) pickupStrictlyMatch= /* stop if pickup do not strictly match */
(PID.TID 0000.0001)                   F
(PID.TID 0000.0001)     ;
(PID.TID 0000.0001) nIter0   =   /* Run starting timestep number */
(PID.TID 0000.0001)                       1
(PID.TID 0000.0001)     ;
(PID.TID 0000.0001) nTimeSteps = /* Number of timesteps */
(PID.TID 0000.0001)                  175295
(PID.TID 0000.0001)     ;
(PID.TID 0000.0001) nEndIter =   /* Run ending timestep number */
(PID.TID 0000.0001)                  175296
(PID.TID 0000.0001)     ;
(PID.TID 0000.0001) baseTime =   /* Model base time ( s ) */
(PID.TID 0000.0001)                 0.000000000000000E+00
(PID.TID 0000.0001)     ;
(PID.TID 0000.0001) startTime =  /* Run start time ( s ) */
(PID.TID 0000.0001)                 3.600000000000000E+03
(PID.TID 0000.0001)     ;
(PID.TID 0000.0001) endTime  =   /* Integration ending time ( s ) */
(PID.TID 0000.0001)                 6.310656000000000E+08
(PID.TID 0000.0001)     ;
(PID.TID 0000.0001) pChkPtFreq = /* Permanent restart/pickup file interval ( s ) */
(PID.TID 0000.0001)                 3.153600000000000E+07
(PID.TID 0000.0001)     ;
(PID.TID 0000.0001) chkPtFreq  = /* Rolling restart/pickup file interval ( s ) */
(PID.TID 0000.0001)                 3.153600000000000E+07
(PID.TID 0000.0001)     ;
(PID.TID 0000.0001) pickup_write_mdsio =   /* Model IO flag. */
(PID.TID 0000.0001)                   T
(PID.TID 0000.0001)     ;
(PID.TID 0000.0001) pickup_read_mdsio =   /* Model IO flag. */
(PID.TID 0000.0001)                   T
(PID.TID 0000.0001)     ;
(PID.TID 0000.0001) writePickupAtEnd =   /* Model IO flag. */
(PID.TID 0000.0001)                   T
(PID.TID 0000.0001)     ;
(PID.TID 0000.0001) dumpFreq =   /* Model state write out interval ( s ). */
(PID.TID 0000.0001)                 0.000000000000000E+00
(PID.TID 0000.0001)     ;
(PID.TID 0000.0001) dumpInitAndLast= /* write out Initial & Last iter. model state */
(PID.TID 0000.0001)                   T
(PID.TID 0000.0001)     ;
(PID.TID 0000.0001) snapshot_mdsio =   /* Model IO flag. */
(PID.TID 0000.0001)                   T
(PID.TID 0000.0001)     ;
(PID.TID 0000.0001) monitorFreq =   /* Monitor output interval ( s ). */
(PID.TID 0000.0001)                 7.200000000000000E+03
(PID.TID 0000.0001)     ;
(PID.TID 0000.0001) monitorSelect = /* select group of variables to monitor */
(PID.TID 0000.0001)                       3
(PID.TID 0000.0001)     ;
(PID.TID 0000.0001) monitor_stdio =   /* Model IO flag. */
(PID.TID 0000.0001)                   T
(PID.TID 0000.0001)     ;
(PID.TID 0000.0001) externForcingPeriod =   /* forcing period (s) */
(PID.TID 0000.0001)                 0.000000000000000E+00
(PID.TID 0000.0001)     ;
(PID.TID 0000.0001) externForcingCycle =   /* period of the cyle (s). */
(PID.TID 0000.0001)                 0.000000000000000E+00
(PID.TID 0000.0001)     ;
(PID.TID 0000.0001) tauThetaClimRelax =   /* relaxation time scale (s) */
(PID.TID 0000.0001)                 0.000000000000000E+00
(PID.TID 0000.0001)     ;
(PID.TID 0000.0001) tauSaltClimRelax =   /* relaxation time scale (s) */
(PID.TID 0000.0001)                 0.000000000000000E+00
(PID.TID 0000.0001)     ;
(PID.TID 0000.0001) latBandClimRelax =   /* max. Lat. where relaxation */
(PID.TID 0000.0001)                 1.800000000000000E+02
(PID.TID 0000.0001)     ;
(PID.TID 0000.0001) //
(PID.TID 0000.0001) // Gridding paramters ( PARM04 in namelist )
(PID.TID 0000.0001) //
(PID.TID 0000.0001) usingCartesianGrid = /* Cartesian coordinates flag ( True/False ) */
(PID.TID 0000.0001)                   F
(PID.TID 0000.0001)     ;
(PID.TID 0000.0001) usingCylindricalGrid = /* Cylindrical coordinates flag ( True/False ) */
(PID.TID 0000.0001)                   F
(PID.TID 0000.0001)     ;
(PID.TID 0000.0001) usingSphericalPolarGrid = /* Spherical coordinates flag ( True/False ) */
(PID.TID 0000.0001)                   F
(PID.TID 0000.0001)     ;
(PID.TID 0000.0001) usingCurvilinearGrid = /* Curvilinear coordinates flag ( True/False ) */
(PID.TID 0000.0001)                   T
(PID.TID 0000.0001)     ;
(PID.TID 0000.0001) useMin4hFacEdges = /* set hFacW,S as minimum of adjacent hFacC factor */
(PID.TID 0000.0001)                   F
(PID.TID 0000.0001)     ;
(PID.TID 0000.0001) selectSigmaCoord = /* Hybrid-Sigma Vert. Coordinate option */
(PID.TID 0000.0001)                       0
(PID.TID 0000.0001)     ;
(PID.TID 0000.0001) rSigmaBnd = /* r/sigma transition ( units of r ==  m ) */
(PID.TID 0000.0001)                 1.234567000000000E+05
(PID.TID 0000.0001)     ;
(PID.TID 0000.0001) rkSign =   /* index orientation relative to vertical coordinate */
(PID.TID 0000.0001)                -1.000000000000000E+00
(PID.TID 0000.0001)     ;
(PID.TID 0000.0001) gravitySign = /* gravity orientation relative to vertical coordinate */
(PID.TID 0000.0001)                -1.000000000000000E+00
(PID.TID 0000.0001)     ;
(PID.TID 0000.0001) seaLev_Z =  /* reference height of sea-level [m] */
(PID.TID 0000.0001)                 0.000000000000000E+00
(PID.TID 0000.0001)     ;
(PID.TID 0000.0001) top_Pres =  /* reference pressure at the top [Pa] */
(PID.TID 0000.0001)                 0.000000000000000E+00
(PID.TID 0000.0001)     ;
(PID.TID 0000.0001) mass2rUnit = /* convert mass per unit area [kg/m2] to r-units [m] */
(PID.TID 0000.0001)                 9.718172983479105E-04
(PID.TID 0000.0001)     ;
(PID.TID 0000.0001) rUnit2mass = /* convert r-units [m] to mass per unit area [kg/m2] */
(PID.TID 0000.0001)                 1.029000000000000E+03
(PID.TID 0000.0001)     ;
(PID.TID 0000.0001) drC =   /* C spacing ( units of r ) */
(PID.TID 0000.0001)                 5.000000000000000E+00,      /* K =  1 */
(PID.TID 0000.0001)     6 @  1.000000000000000E+01,             /* K =  2:  7 */
(PID.TID 0000.0001)                 1.000500000000000E+01,      /* K =  8 */
(PID.TID 0000.0001)                 1.002000000000000E+01,      /* K =  9 */
(PID.TID 0000.0001)                 1.007000000000000E+01,      /* K = 10 */
(PID.TID 0000.0001)                 1.021500000000000E+01,      /* K = 11 */
(PID.TID 0000.0001)                 1.056000000000000E+01,      /* K = 12 */
(PID.TID 0000.0001)                 1.128000000000000E+01,      /* K = 13 */
(PID.TID 0000.0001)                 1.259000000000000E+01,      /* K = 14 */
(PID.TID 0000.0001)                 1.473000000000000E+01,      /* K = 15 */
(PID.TID 0000.0001)                 1.793000000000000E+01,      /* K = 16 */
(PID.TID 0000.0001)                 2.233500000000000E+01,      /* K = 17 */
(PID.TID 0000.0001)                 2.797500000000000E+01,      /* K = 18 */
(PID.TID 0000.0001)                 3.476000000000001E+01,      /* K = 19 */
(PID.TID 0000.0001)                 4.246000000000000E+01,      /* K = 20 */
(PID.TID 0000.0001)                 5.075000000000000E+01,      /* K = 21 */
(PID.TID 0000.0001)                 5.925000000000000E+01,      /* K = 22 */
(PID.TID 0000.0001)                 6.753999999999999E+01,      /* K = 23 */
(PID.TID 0000.0001)                 7.524000000000001E+01,      /* K = 24 */
(PID.TID 0000.0001)                 8.202500000000001E+01,      /* K = 25 */
(PID.TID 0000.0001)                 8.766500000000001E+01,      /* K = 26 */
(PID.TID 0000.0001)                 9.206999999999999E+01,      /* K = 27 */
(PID.TID 0000.0001)                 9.527000000000000E+01,      /* K = 28 */
(PID.TID 0000.0001)                 9.741499999999999E+01,      /* K = 29 */
(PID.TID 0000.0001)                 9.875000000000000E+01,      /* K = 30 */
(PID.TID 0000.0001)                 9.963000000000000E+01,      /* K = 31 */
(PID.TID 0000.0001)                 1.006700000000000E+02,      /* K = 32 */
(PID.TID 0000.0001)                 1.029450000000000E+02,      /* K = 33 */
(PID.TID 0000.0001)                 1.079450000000000E+02,      /* K = 34 */
(PID.TID 0000.0001)                 1.170800000000000E+02,      /* K = 35 */
(PID.TID 0000.0001)                 1.309600000000000E+02,      /* K = 36 */
(PID.TID 0000.0001)                 1.490150000000000E+02,      /* K = 37 */
(PID.TID 0000.0001)                 1.698850000000000E+02,      /* K = 38 */
(PID.TID 0000.0001)                 1.921900000000000E+02,      /* K = 39 */
(PID.TID 0000.0001)                 2.150250000000000E+02,      /* K = 40 */
(PID.TID 0000.0001)                 2.380000000000000E+02,      /* K = 41 */
(PID.TID 0000.0001)                 2.610000000000000E+02,      /* K = 42 */
(PID.TID 0000.0001)                 2.840000000000000E+02,      /* K = 43 */
(PID.TID 0000.0001)                 3.070000000000000E+02,      /* K = 44 */
(PID.TID 0000.0001)                 3.300000000000000E+02,      /* K = 45 */
(PID.TID 0000.0001)                 3.530000000000000E+02,      /* K = 46 */
(PID.TID 0000.0001)                 3.760000000000000E+02,      /* K = 47 */
(PID.TID 0000.0001)                 3.990000000000000E+02,      /* K = 48 */
(PID.TID 0000.0001)                 4.220000000000000E+02,      /* K = 49 */
(PID.TID 0000.0001)                 4.450000000000000E+02,      /* K = 50 */
(PID.TID 0000.0001)                 2.282500000000000E+02       /* K = 51 */
(PID.TID 0000.0001)     ;
(PID.TID 0000.0001) drF =   /* W spacing ( units of r ) */
(PID.TID 0000.0001)     7 @  1.000000000000000E+01,             /* K =  1:  7 */
(PID.TID 0000.0001)                 1.001000000000000E+01,      /* K =  8 */
(PID.TID 0000.0001)                 1.003000000000000E+01,      /* K =  9 */
(PID.TID 0000.0001)                 1.011000000000000E+01,      /* K = 10 */
(PID.TID 0000.0001)                 1.032000000000000E+01,      /* K = 11 */
(PID.TID 0000.0001)                 1.080000000000000E+01,      /* K = 12 */
(PID.TID 0000.0001)                 1.176000000000000E+01,      /* K = 13 */
(PID.TID 0000.0001)                 1.342000000000000E+01,      /* K = 14 */
(PID.TID 0000.0001)                 1.604000000000000E+01,      /* K = 15 */
(PID.TID 0000.0001)                 1.982000000000000E+01,      /* K = 16 */
(PID.TID 0000.0001)                 2.485000000000000E+01,      /* K = 17 */
(PID.TID 0000.0001)                 3.110000000000000E+01,      /* K = 18 */
(PID.TID 0000.0001)                 3.842000000000000E+01,      /* K = 19 */
(PID.TID 0000.0001)                 4.650000000000000E+01,      /* K = 20 */
(PID.TID 0000.0001)                 5.500000000000000E+01,      /* K = 21 */
(PID.TID 0000.0001)                 6.350000000000000E+01,      /* K = 22 */
(PID.TID 0000.0001)                 7.158000000000000E+01,      /* K = 23 */
(PID.TID 0000.0001)                 7.890000000000001E+01,      /* K = 24 */
(PID.TID 0000.0001)                 8.515000000000001E+01,      /* K = 25 */
(PID.TID 0000.0001)                 9.018000000000001E+01,      /* K = 26 */
(PID.TID 0000.0001)                 9.395999999999999E+01,      /* K = 27 */
(PID.TID 0000.0001)                 9.658000000000000E+01,      /* K = 28 */
(PID.TID 0000.0001)                 9.825000000000000E+01,      /* K = 29 */
(PID.TID 0000.0001)                 9.925000000000000E+01,      /* K = 30 */
(PID.TID 0000.0001)                 1.000100000000000E+02,      /* K = 31 */
(PID.TID 0000.0001)                 1.013300000000000E+02,      /* K = 32 */
(PID.TID 0000.0001)                 1.045600000000000E+02,      /* K = 33 */
(PID.TID 0000.0001)                 1.113300000000000E+02,      /* K = 34 */
(PID.TID 0000.0001)                 1.228300000000000E+02,      /* K = 35 */
(PID.TID 0000.0001)                 1.390900000000000E+02,      /* K = 36 */
(PID.TID 0000.0001)                 1.589400000000000E+02,      /* K = 37 */
(PID.TID 0000.0001)                 1.808300000000000E+02,      /* K = 38 */
(PID.TID 0000.0001)                 2.035500000000000E+02,      /* K = 39 */
(PID.TID 0000.0001)                 2.265000000000000E+02,      /* K = 40 */
(PID.TID 0000.0001)                 2.495000000000000E+02,      /* K = 41 */
(PID.TID 0000.0001)                 2.725000000000000E+02,      /* K = 42 */
(PID.TID 0000.0001)                 2.955000000000000E+02,      /* K = 43 */
(PID.TID 0000.0001)                 3.185000000000000E+02,      /* K = 44 */
(PID.TID 0000.0001)                 3.415000000000000E+02,      /* K = 45 */
(PID.TID 0000.0001)                 3.645000000000000E+02,      /* K = 46 */
(PID.TID 0000.0001)                 3.875000000000000E+02,      /* K = 47 */
(PID.TID 0000.0001)                 4.105000000000000E+02,      /* K = 48 */
(PID.TID 0000.0001)                 4.335000000000000E+02,      /* K = 49 */
(PID.TID 0000.0001)                 4.565000000000000E+02       /* K = 50 */
(PID.TID 0000.0001)     ;
(PID.TID 0000.0001) radius_fromHorizGrid = /* sphere Radius of input horiz. grid */
(PID.TID 0000.0001)                 6.370000000000000E+06
(PID.TID 0000.0001)     ;
(PID.TID 0000.0001) rSphere =  /* Radius ( ignored - cartesian, m - spherical ) */
(PID.TID 0000.0001)                 6.370000000000000E+06
(PID.TID 0000.0001)     ;
(PID.TID 0000.0001) deepAtmosphere = /* Deep/Shallow Atmosphere flag (True/False) */
(PID.TID 0000.0001)                   F
(PID.TID 0000.0001)     ;
(PID.TID 0000.0001) xC =  /* xC(:,1,:,1) : P-point X coord ( deg. or m if cartesian) */
(PID.TID 0000.0001)                -4.081468768806280E+01,      /* I =  1 */
(PID.TID 0000.0001)                -3.957104986057077E+01,      /* I =  2 */
(PID.TID 0000.0001)                -3.832217028656162E+01,      /* I =  3 */
(PID.TID 0000.0001)                -3.706844413107324E+01,      /* I =  4 */
(PID.TID 0000.0001)                -3.581028225779612E+01,      /* I =  5 */
(PID.TID 0000.0001)                -3.454811012006861E+01,      /* I =  6 */
(PID.TID 0000.0001)                -3.328236654497336E+01,      /* I =  7 */
(PID.TID 0000.0001)                -3.201350241727823E+01,      /* I =  8 */
(PID.TID 0000.0001)                -3.074197927113779E+01,      /* I =  9 */
(PID.TID 0000.0001)                -2.946826779826338E+01,      /* I = 10 */
(PID.TID 0000.0001)                -2.819284628214859E+01,      /* I = 11 */
(PID.TID 0000.0001)                -2.691619896217756E+01,      /* I = 12 */
(PID.TID 0000.0001)                -2.563881425705264E+01,      /* I = 13 */
(PID.TID 0000.0001)                -2.436118574294736E+01,      /* I = 14 */
(PID.TID 0000.0001)                -2.308380103782244E+01,      /* I = 15 */
(PID.TID 0000.0001)                -2.180715371785141E+01,      /* I = 16 */
(PID.TID 0000.0001)                -2.053173220173662E+01,      /* I = 17 */
(PID.TID 0000.0001)                -1.925802072886221E+01,      /* I = 18 */
(PID.TID 0000.0001)                -1.798649758272177E+01,      /* I = 19 */
(PID.TID 0000.0001)                -1.671763345502664E+01,      /* I = 20 */
(PID.TID 0000.0001)                -1.545188987993139E+01,      /* I = 21 */
(PID.TID 0000.0001)                -1.418971774220388E+01,      /* I = 22 */
(PID.TID 0000.0001)                -1.293155586892676E+01,      /* I = 23 */
(PID.TID 0000.0001)                -1.167782971343838E+01,      /* I = 24 */
(PID.TID 0000.0001)                -1.042895013942923E+01,      /* I = 25 */
(PID.TID 0000.0001)                -9.185312311937196E+00,      /* I = 26 */
(PID.TID 0000.0001)                -7.947294700425999E+00,      /* I = 27 */
(PID.TID 0000.0001)                -6.715258197621779E+00,      /* I = 28 */
(PID.TID 0000.0001)                -5.489545357070952E+00,      /* I = 29 */
(PID.TID 0000.0001)                -4.270479749729759E+00       /* I = 30 */
(PID.TID 0000.0001)     ;
(PID.TID 0000.0001) yC =  /* yC(1,:,1,:) : P-point Y coord ( deg. or m if cartesian) */
(PID.TID 0000.0001)                -8.146222940368236E+01,      /* J =  1 */
(PID.TID 0000.0001)                -8.113083815286421E+01,      /* J =  2 */
(PID.TID 0000.0001)                -8.079504828233755E+01,      /* J =  3 */
(PID.TID 0000.0001)                -8.045491317322768E+01,      /* J =  4 */
(PID.TID 0000.0001)                -8.011048280590389E+01,      /* J =  5 */
(PID.TID 0000.0001)                -7.976180430515704E+01,      /* J =  6 */
(PID.TID 0000.0001)                -7.940892240526760E+01,      /* J =  7 */
(PID.TID 0000.0001)                -7.905187984845006E+01,      /* J =  8 */
(PID.TID 0000.0001)                -7.869071772754813E+01,      /* J =  9 */
(PID.TID 0000.0001)                -7.832547578199167E+01,      /* J = 10 */
(PID.TID 0000.0001)                -7.795619265432416E+01,      /* J = 11 */
(PID.TID 0000.0001)                -7.758290611340497E+01,      /* J = 12 */
(PID.TID 0000.0001)                -7.720565324926896E+01,      /* J = 13 */
(PID.TID 0000.0001)                -7.682447064385434E+01,      /* J = 14 */
(PID.TID 0000.0001)                -7.643939452107085E+01,      /* J = 15 */
(PID.TID 0000.0001)                -7.605046087901695E+01,      /* J = 16 */
(PID.TID 0000.0001)                -7.565770560699295E+01,      /* J = 17 */
(PID.TID 0000.0001)                -7.526116458910658E+01,      /* J = 18 */
(PID.TID 0000.0001)                -7.486087379640449E+01,      /* J = 19 */
(PID.TID 0000.0001)                -7.445686936886233E+01,      /* J = 20 */
(PID.TID 0000.0001)                -7.404918768854837E+01,      /* J = 21 */
(PID.TID 0000.0001)                -7.363786544493549E+01,      /* J = 22 */
(PID.TID 0000.0001)                -7.322293969328220E+01,      /* J = 23 */
(PID.TID 0000.0001)                -7.280444790682334E+01,      /* J = 24 */
(PID.TID 0000.0001)                -7.238242802328044E+01,      /* J = 25 */
(PID.TID 0000.0001)                -7.195691848614972E+01,      /* J = 26 */
(PID.TID 0000.0001)                -7.152795828082729E+01,      /* J = 27 */
(PID.TID 0000.0001)                -7.109558696482472E+01,      /* J = 28 */
(PID.TID 0000.0001)                -7.065984468855757E+01,      /* J = 29 */
(PID.TID 0000.0001)                -7.022077218177122E+01       /* J = 30 */
(PID.TID 0000.0001)     ;
(PID.TID 0000.0001) rcoord = /* P-point R coordinate (  units of r ) */
(PID.TID 0000.0001)                -5.000000000000000E+00,      /* K =  1 */
(PID.TID 0000.0001)                -1.500000000000000E+01,      /* K =  2 */
(PID.TID 0000.0001)                -2.500000000000000E+01,      /* K =  3 */
(PID.TID 0000.0001)                -3.500000000000000E+01,      /* K =  4 */
(PID.TID 0000.0001)                -4.500000000000000E+01,      /* K =  5 */
(PID.TID 0000.0001)                -5.500000000000000E+01,      /* K =  6 */
(PID.TID 0000.0001)                -6.500000000000000E+01,      /* K =  7 */
(PID.TID 0000.0001)                -7.500500000000000E+01,      /* K =  8 */
(PID.TID 0000.0001)                -8.502499999999999E+01,      /* K =  9 */
(PID.TID 0000.0001)                -9.509500000000000E+01,      /* K = 10 */
(PID.TID 0000.0001)                -1.053100000000000E+02,      /* K = 11 */
(PID.TID 0000.0001)                -1.158700000000000E+02,      /* K = 12 */
(PID.TID 0000.0001)                -1.271500000000000E+02,      /* K = 13 */
(PID.TID 0000.0001)                -1.397400000000000E+02,      /* K = 14 */
(PID.TID 0000.0001)                -1.544700000000000E+02,      /* K = 15 */
(PID.TID 0000.0001)                -1.724000000000000E+02,      /* K = 16 */
(PID.TID 0000.0001)                -1.947350000000000E+02,      /* K = 17 */
(PID.TID 0000.0001)                -2.227100000000000E+02,      /* K = 18 */
(PID.TID 0000.0001)                -2.574700000000000E+02,      /* K = 19 */
(PID.TID 0000.0001)                -2.999300000000000E+02,      /* K = 20 */
(PID.TID 0000.0001)                -3.506800000000000E+02,      /* K = 21 */
(PID.TID 0000.0001)                -4.099300000000000E+02,      /* K = 22 */
(PID.TID 0000.0001)                -4.774700000000000E+02,      /* K = 23 */
(PID.TID 0000.0001)                -5.527100000000000E+02,      /* K = 24 */
(PID.TID 0000.0001)                -6.347350000000000E+02,      /* K = 25 */
(PID.TID 0000.0001)                -7.224000000000000E+02,      /* K = 26 */
(PID.TID 0000.0001)                -8.144700000000000E+02,      /* K = 27 */
(PID.TID 0000.0001)                -9.097400000000000E+02,      /* K = 28 */
(PID.TID 0000.0001)                -1.007155000000000E+03,      /* K = 29 */
(PID.TID 0000.0001)                -1.105905000000000E+03,      /* K = 30 */
(PID.TID 0000.0001)                -1.205535000000000E+03,      /* K = 31 */
(PID.TID 0000.0001)                -1.306205000000000E+03,      /* K = 32 */
(PID.TID 0000.0001)                -1.409150000000000E+03,      /* K = 33 */
(PID.TID 0000.0001)                -1.517095000000000E+03,      /* K = 34 */
(PID.TID 0000.0001)                -1.634175000000000E+03,      /* K = 35 */
(PID.TID 0000.0001)                -1.765135000000000E+03,      /* K = 36 */
(PID.TID 0000.0001)                -1.914150000000000E+03,      /* K = 37 */
(PID.TID 0000.0001)                -2.084035000000000E+03,      /* K = 38 */
(PID.TID 0000.0001)                -2.276225000000000E+03,      /* K = 39 */
(PID.TID 0000.0001)                -2.491250000000000E+03,      /* K = 40 */
(PID.TID 0000.0001)                -2.729250000000000E+03,      /* K = 41 */
(PID.TID 0000.0001)                -2.990250000000000E+03,      /* K = 42 */
(PID.TID 0000.0001)                -3.274250000000000E+03,      /* K = 43 */
(PID.TID 0000.0001)                -3.581250000000000E+03,      /* K = 44 */
(PID.TID 0000.0001)                -3.911250000000000E+03,      /* K = 45 */
(PID.TID 0000.0001)                -4.264250000000000E+03,      /* K = 46 */
(PID.TID 0000.0001)                -4.640250000000000E+03,      /* K = 47 */
(PID.TID 0000.0001)                -5.039250000000000E+03,      /* K = 48 */
(PID.TID 0000.0001)                -5.461250000000000E+03,      /* K = 49 */
(PID.TID 0000.0001)                -5.906250000000000E+03       /* K = 50 */
(PID.TID 0000.0001)     ;
(PID.TID 0000.0001) rF =   /* W-Interf. R coordinate (  units of r ) */
(PID.TID 0000.0001)                 0.000000000000000E+00,      /* K =  1 */
(PID.TID 0000.0001)                -1.000000000000000E+01,      /* K =  2 */
(PID.TID 0000.0001)                -2.000000000000000E+01,      /* K =  3 */
(PID.TID 0000.0001)                -3.000000000000000E+01,      /* K =  4 */
(PID.TID 0000.0001)                -4.000000000000000E+01,      /* K =  5 */
(PID.TID 0000.0001)                -5.000000000000000E+01,      /* K =  6 */
(PID.TID 0000.0001)                -6.000000000000000E+01,      /* K =  7 */
(PID.TID 0000.0001)                -7.000000000000000E+01,      /* K =  8 */
(PID.TID 0000.0001)                -8.001000000000001E+01,      /* K =  9 */
(PID.TID 0000.0001)                -9.004000000000001E+01,      /* K = 10 */
(PID.TID 0000.0001)                -1.001500000000000E+02,      /* K = 11 */
(PID.TID 0000.0001)                -1.104700000000000E+02,      /* K = 12 */
(PID.TID 0000.0001)                -1.212700000000000E+02,      /* K = 13 */
(PID.TID 0000.0001)                -1.330300000000000E+02,      /* K = 14 */
(PID.TID 0000.0001)                -1.464500000000000E+02,      /* K = 15 */
(PID.TID 0000.0001)                -1.624900000000000E+02,      /* K = 16 */
(PID.TID 0000.0001)                -1.823100000000000E+02,      /* K = 17 */
(PID.TID 0000.0001)                -2.071600000000000E+02,      /* K = 18 */
(PID.TID 0000.0001)                -2.382600000000000E+02,      /* K = 19 */
(PID.TID 0000.0001)                -2.766799999999999E+02,      /* K = 20 */
(PID.TID 0000.0001)                -3.231799999999999E+02,      /* K = 21 */
(PID.TID 0000.0001)                -3.781799999999999E+02,      /* K = 22 */
(PID.TID 0000.0001)                -4.416799999999999E+02,      /* K = 23 */
(PID.TID 0000.0001)                -5.132600000000000E+02,      /* K = 24 */
(PID.TID 0000.0001)                -5.921600000000000E+02,      /* K = 25 */
(PID.TID 0000.0001)                -6.773099999999999E+02,      /* K = 26 */
(PID.TID 0000.0001)                -7.674900000000000E+02,      /* K = 27 */
(PID.TID 0000.0001)                -8.614500000000000E+02,      /* K = 28 */
(PID.TID 0000.0001)                -9.580300000000001E+02,      /* K = 29 */
(PID.TID 0000.0001)                -1.056280000000000E+03,      /* K = 30 */
(PID.TID 0000.0001)                -1.155530000000000E+03,      /* K = 31 */
(PID.TID 0000.0001)                -1.255540000000000E+03,      /* K = 32 */
(PID.TID 0000.0001)                -1.356870000000000E+03,      /* K = 33 */
(PID.TID 0000.0001)                -1.461430000000000E+03,      /* K = 34 */
(PID.TID 0000.0001)                -1.572760000000000E+03,      /* K = 35 */
(PID.TID 0000.0001)                -1.695590000000000E+03,      /* K = 36 */
(PID.TID 0000.0001)                -1.834680000000000E+03,      /* K = 37 */
(PID.TID 0000.0001)                -1.993620000000000E+03,      /* K = 38 */
(PID.TID 0000.0001)                -2.174450000000000E+03,      /* K = 39 */
(PID.TID 0000.0001)                -2.378000000000000E+03,      /* K = 40 */
(PID.TID 0000.0001)                -2.604500000000000E+03,      /* K = 41 */
(PID.TID 0000.0001)                -2.854000000000000E+03,      /* K = 42 */
(PID.TID 0000.0001)                -3.126500000000000E+03,      /* K = 43 */
(PID.TID 0000.0001)                -3.422000000000000E+03,      /* K = 44 */
(PID.TID 0000.0001)                -3.740500000000000E+03,      /* K = 45 */
(PID.TID 0000.0001)                -4.082000000000000E+03,      /* K = 46 */
(PID.TID 0000.0001)                -4.446500000000000E+03,      /* K = 47 */
(PID.TID 0000.0001)                -4.834000000000000E+03,      /* K = 48 */
(PID.TID 0000.0001)                -5.244500000000000E+03,      /* K = 49 */
(PID.TID 0000.0001)                -5.678000000000000E+03,      /* K = 50 */
(PID.TID 0000.0001)                -6.134500000000000E+03       /* K = 51 */
(PID.TID 0000.0001)     ;
(PID.TID 0000.0001) deepFacC = /* deep-model grid factor @ cell-Center (-) */
(PID.TID 0000.0001)    50 @  1.000000000000000E+00              /* K =  1: 50 */
(PID.TID 0000.0001)     ;
(PID.TID 0000.0001) deepFacF = /* deep-model grid factor @ W-Interface (-) */
(PID.TID 0000.0001)    51 @  1.000000000000000E+00              /* K =  1: 51 */
(PID.TID 0000.0001)     ;
(PID.TID 0000.0001) rVel2wUnit = /* convert units: rVel -> wSpeed (=1 if z-coord)*/
(PID.TID 0000.0001)    51 @  1.000000000000000E+00              /* K =  1: 51 */
(PID.TID 0000.0001)     ;
(PID.TID 0000.0001) wUnit2rVel = /* convert units: wSpeed -> rVel (=1 if z-coord)*/
(PID.TID 0000.0001)    51 @  1.000000000000000E+00              /* K =  1: 51 */
(PID.TID 0000.0001)     ;
(PID.TID 0000.0001) dBdrRef = /* Vertical grad. of reference buoyancy [(m/s/r)^2] */
(PID.TID 0000.0001)     3 @  0.000000000000000E+00,             /* K =  1:  3 */
(PID.TID 0000.0001)                 2.706065538651213E-04,      /* K =  4 */
(PID.TID 0000.0001)     2 @  0.000000000000000E+00,             /* K =  5:  6 */
(PID.TID 0000.0001)                 2.632794562663490E-04,      /* K =  7 */
(PID.TID 0000.0001)                 2.554318021231947E-04,      /* K =  8 */
(PID.TID 0000.0001)                 0.000000000000000E+00,      /* K =  9 */
(PID.TID 0000.0001)                 2.461524232360561E-04,      /* K = 10 */
(PID.TID 0000.0001)                 2.348694431245364E-04,      /* K = 11 */
(PID.TID 0000.0001)                 0.000000000000000E+00,      /* K = 12 */
(PID.TID 0000.0001)                 2.056847859884566E-04,      /* K = 13 */
(PID.TID 0000.0001)                 1.777764506003336E-04,      /* K = 14 */
(PID.TID 0000.0001)                 0.000000000000000E+00,      /* K = 15 */
(PID.TID 0000.0001)                 1.203533867077665E-04,      /* K = 16 */
(PID.TID 0000.0001)                 9.288540355629585E-05,      /* K = 17 */
(PID.TID 0000.0001)                 7.115862770365155E-05,      /* K = 18 */
(PID.TID 0000.0001)                 5.484365820533800E-05,      /* K = 19 */
(PID.TID 0000.0001)                 4.290935507113214E-05,      /* K = 20 */
(PID.TID 0000.0001)                 6.658747741703880E-05,      /* K = 21 */
(PID.TID 0000.0001)                 0.000000000000000E+00,      /* K = 22 */
(PID.TID 0000.0001)                 2.323718420342036E-05,      /* K = 23 */
(PID.TID 0000.0001)                 1.974682037962757E-05,      /* K = 24 */
(PID.TID 0000.0001)                 1.709468932536602E-05,      /* K = 25 */
(PID.TID 0000.0001)                 0.000000000000000E+00,      /* K = 26 */
(PID.TID 0000.0001)                 1.455436545977052E-05,      /* K = 27 */
(PID.TID 0000.0001)                 0.000000000000000E+00,      /* K = 28 */
(PID.TID 0000.0001)                 1.315287111980149E-05,      /* K = 29 */
(PID.TID 0000.0001)     2 @  0.000000000000000E+00,             /* K = 30: 31 */
(PID.TID 0000.0001)                 1.240968507885233E-05,      /* K = 32 */
(PID.TID 0000.0001)     2 @  0.000000000000000E+00,             /* K = 33: 34 */
(PID.TID 0000.0001)                 1.045141607964570E-05,      /* K = 35 */
(PID.TID 0000.0001)     3 @  0.000000000000000E+00,             /* K = 36: 38 */
(PID.TID 0000.0001)                 6.628797113709505E-06,      /* K = 39 */
(PID.TID 0000.0001)    11 @  0.000000000000000E+00              /* K = 40: 50 */
(PID.TID 0000.0001)     ;
(PID.TID 0000.0001) rotateGrid = /* use rotated grid ( True/False ) */
(PID.TID 0000.0001)                   F
(PID.TID 0000.0001)     ;
(PID.TID 0000.0001) phiEuler = /* Euler angle, rotation about original z-coordinate [rad] */
(PID.TID 0000.0001)                 0.000000000000000E+00
(PID.TID 0000.0001)     ;
(PID.TID 0000.0001) thetaEuler = /* Euler angle, rotation about new x-coordinate [rad] */
(PID.TID 0000.0001)                 0.000000000000000E+00
(PID.TID 0000.0001)     ;
(PID.TID 0000.0001) psiEuler = /* Euler angle, rotation about new z-coordinate [rad] */
(PID.TID 0000.0001)                 0.000000000000000E+00
(PID.TID 0000.0001)     ;
(PID.TID 0000.0001) dxF =  /* dxF(:,1,:,1) ( units: m ) */
(PID.TID 0000.0001)                 2.071152825743187E+04,      /* I =  1 */
(PID.TID 0000.0001)                 2.070365142756831E+04,      /* I =  2 */
(PID.TID 0000.0001)                 2.069635296570141E+04,      /* I =  3 */
(PID.TID 0000.0001)                 2.068965358413176E+04,      /* I =  4 */
(PID.TID 0000.0001)                 2.068357195583360E+04,      /* I =  5 */
(PID.TID 0000.0001)                 2.067812475356784E+04,      /* I =  6 */
(PID.TID 0000.0001)                 2.067332670125947E+04,      /* I =  7 */
(PID.TID 0000.0001)                 2.066919060389092E+04,      /* I =  8 */
(PID.TID 0000.0001)                 2.066572738985245E+04,      /* I =  9 */
(PID.TID 0000.0001)                 2.066294615597989E+04,      /* I = 10 */
(PID.TID 0000.0001)                 2.066085425372315E+04,      /* I = 11 */
(PID.TID 0000.0001)                 2.065945771525925E+04,      /* I = 12 */
(PID.TID 0000.0001)                 2.065874381268158E+04,      /* I = 13 */
(PID.TID 0000.0001)                 2.065874381268158E+04,      /* I = 14 */
(PID.TID 0000.0001)                 2.065945771525925E+04,      /* I = 15 */
(PID.TID 0000.0001)                 2.066085425372316E+04,      /* I = 16 */
(PID.TID 0000.0001)                 2.066294615597989E+04,      /* I = 17 */
(PID.TID 0000.0001)                 2.066572738985245E+04,      /* I = 18 */
(PID.TID 0000.0001)                 2.066919060389088E+04,      /* I = 19 */
(PID.TID 0000.0001)                 2.067332670125956E+04,      /* I = 20 */
(PID.TID 0000.0001)                 2.067812475356780E+04,      /* I = 21 */
(PID.TID 0000.0001)                 2.068357195583360E+04,      /* I = 22 */
(PID.TID 0000.0001)                 2.068965358413182E+04,      /* I = 23 */
(PID.TID 0000.0001)                 2.069635296570133E+04,      /* I = 24 */
(PID.TID 0000.0001)                 2.070365142756836E+04,      /* I = 25 */
(PID.TID 0000.0001)                 2.071152825743182E+04,      /* I = 26 */
(PID.TID 0000.0001)                 2.071996065138743E+04,      /* I = 27 */
(PID.TID 0000.0001)                 2.072892365863983E+04,      /* I = 28 */
(PID.TID 0000.0001)                 2.073839012765668E+04,      /* I = 29 */
(PID.TID 0000.0001)                 2.074833063718403E+04       /* I = 30 */
(PID.TID 0000.0001)     ;
(PID.TID 0000.0001) dxF =  /* dxF(1,:,1,:) ( units: m ) */
(PID.TID 0000.0001)                 2.071152825743187E+04,      /* J =  1 */
(PID.TID 0000.0001)                 2.109117491456033E+04,      /* J =  2 */
(PID.TID 0000.0001)                 2.148525648961724E+04,      /* J =  3 */
(PID.TID 0000.0001)                 2.189377348588603E+04,      /* J =  4 */
(PID.TID 0000.0001)                 2.231672440915243E+04,      /* J =  5 */
(PID.TID 0000.0001)                 2.275410689480659E+04,      /* J =  6 */
(PID.TID 0000.0001)                 2.320591873318126E+04,      /* J =  7 */
(PID.TID 0000.0001)                 2.367215879054831E+04,      /* J =  8 */
(PID.TID 0000.0001)                 2.415282782538908E+04,      /* J =  9 */
(PID.TID 0000.0001)                 2.464792920101809E+04,      /* J = 10 */
(PID.TID 0000.0001)                 2.515746949702995E+04,      /* J = 11 */
(PID.TID 0000.0001)                 2.568145902315334E+04,      /* J = 12 */
(PID.TID 0000.0001)                 2.621991223981432E+04,      /* J = 13 */
(PID.TID 0000.0001)                 2.677284809033052E+04,      /* J = 14 */
(PID.TID 0000.0001)                 2.734029025013979E+04,      /* J = 15 */
(PID.TID 0000.0001)                 2.792226729855568E+04,      /* J = 16 */
(PID.TID 0000.0001)                 2.851881281852892E+04,      /* J = 17 */
(PID.TID 0000.0001)                 2.912996543046302E+04,      /* J = 18 */
(PID.TID 0000.0001)                 2.975576876502299E+04,      /* J = 19 */
(PID.TID 0000.0001)                 3.039627138062681E+04,      /* J = 20 */
(PID.TID 0000.0001)                 3.105152663065675E+04,      /* J = 21 */
(PID.TID 0000.0001)                 3.172159248542454E+04,      /* J = 22 */
(PID.TID 0000.0001)                 3.240653131349731E+04,      /* J = 23 */
(PID.TID 0000.0001)                 3.310640962675057E+04,      /* J = 24 */
(PID.TID 0000.0001)                 3.382129779388320E+04,      /* J = 25 */
(PID.TID 0000.0001)                 3.455126972555294E+04,      /* J = 26 */
(PID.TID 0000.0001)                 3.529640253603521E+04,      /* J = 27 */
(PID.TID 0000.0001)                 3.605677618612848E+04,      /* J = 28 */
(PID.TID 0000.0001)                 3.683247311866502E+04,      /* J = 29 */
(PID.TID 0000.0001)                 3.762357793548112E+04       /* J = 30 */
(PID.TID 0000.0001)     ;
(PID.TID 0000.0001) dyF =  /* dyF(:,1,:,1) ( units: m ) */
(PID.TID 0000.0001)                 3.700742300337598E+04,      /* I =  1 */
(PID.TID 0000.0001)                 3.707905556394973E+04,      /* I =  2 */
(PID.TID 0000.0001)                 3.714471828319018E+04,      /* I =  3 */
(PID.TID 0000.0001)                 3.720441078960103E+04,      /* I =  4 */
(PID.TID 0000.0001)                 3.725813297080282E+04,      /* I =  5 */
(PID.TID 0000.0001)                 3.730588490725751E+04,      /* I =  6 */
(PID.TID 0000.0001)                 3.734766681359038E+04,      /* I =  7 */
(PID.TID 0000.0001)                 3.738347898712025E+04,      /* I =  8 */
(PID.TID 0000.0001)                 3.741332176340629E+04,      /* I =  9 */
(PID.TID 0000.0001)                 3.743719547859261E+04,      /* I = 10 */
(PID.TID 0000.0001)                 3.745510043824806E+04,      /* I = 11 */
(PID.TID 0000.0001)                 3.746703689267323E+04,      /* I = 12 */
(PID.TID 0000.0001)     2 @  3.747300501832417E+04,             /* I = 13: 14 */
(PID.TID 0000.0001)                 3.746703689267323E+04,      /* I = 15 */
(PID.TID 0000.0001)                 3.745510043824806E+04,      /* I = 16 */
(PID.TID 0000.0001)                 3.743719547859261E+04,      /* I = 17 */
(PID.TID 0000.0001)                 3.741332176340628E+04,      /* I = 18 */
(PID.TID 0000.0001)                 3.738347898712024E+04,      /* I = 19 */
(PID.TID 0000.0001)                 3.734766681359040E+04,      /* I = 20 */
(PID.TID 0000.0001)                 3.730588490725750E+04,      /* I = 21 */
(PID.TID 0000.0001)                 3.725813297080281E+04,      /* I = 22 */
(PID.TID 0000.0001)                 3.720441078960103E+04,      /* I = 23 */
(PID.TID 0000.0001)                 3.714471828319017E+04,      /* I = 24 */
(PID.TID 0000.0001)                 3.707905556394973E+04,      /* I = 25 */
(PID.TID 0000.0001)                 3.700742300337599E+04,      /* I = 26 */
(PID.TID 0000.0001)                 3.692982130617692E+04,      /* I = 27 */
(PID.TID 0000.0001)                 3.684625159269555E+04,      /* I = 28 */
(PID.TID 0000.0001)                 3.675671548992459E+04,      /* I = 29 */
(PID.TID 0000.0001)                 3.666121523181524E+04       /* I = 30 */
(PID.TID 0000.0001)     ;
(PID.TID 0000.0001) dyF =  /* dyF(1,:,1,:) ( units: m ) */
(PID.TID 0000.0001)                 3.700742300337598E+04,      /* J =  1 */
(PID.TID 0000.0001)                 3.745555642044499E+04,      /* J =  2 */
(PID.TID 0000.0001)                 3.790206217653974E+04,      /* J =  3 */
(PID.TID 0000.0001)                 3.834684105117956E+04,      /* J =  4 */
(PID.TID 0000.0001)                 3.878979459357282E+04,      /* J =  5 */
(PID.TID 0000.0001)                 3.923082521328924E+04,      /* J =  6 */
(PID.TID 0000.0001)                 3.966983623246408E+04,      /* J =  7 */
(PID.TID 0000.0001)                 4.010673190475840E+04,      /* J =  8 */
(PID.TID 0000.0001)                 4.054141740950450E+04,      /* J =  9 */
(PID.TID 0000.0001)                 4.097379882434454E+04,      /* J = 10 */
(PID.TID 0000.0001)                 4.140378308084428E+04,      /* J = 11 */
(PID.TID 0000.0001)                 4.183127790875583E+04,      /* J = 12 */
(PID.TID 0000.0001)                 4.225619177206317E+04,      /* J = 13 */
(PID.TID 0000.0001)                 4.267843379867976E+04,      /* J = 14 */
(PID.TID 0000.0001)                 4.309791371221616E+04,      /* J = 15 */
(PID.TID 0000.0001)                 4.351454176087940E+04,      /* J = 16 */
(PID.TID 0000.0001)                 4.392822864881465E+04,      /* J = 17 */
(PID.TID 0000.0001)                 4.433888547805120E+04,      /* J = 18 */
(PID.TID 0000.0001)                 4.474642369096899E+04,      /* J = 19 */
(PID.TID 0000.0001)                 4.515075502217317E+04,      /* J = 20 */
(PID.TID 0000.0001)                 4.555179145554101E+04,      /* J = 21 */
(PID.TID 0000.0001)                 4.594944520275577E+04,      /* J = 22 */
(PID.TID 0000.0001)                 4.634362867401398E+04,      /* J = 23 */
(PID.TID 0000.0001)                 4.673425447947427E+04,      /* J = 24 */
(PID.TID 0000.0001)                 4.712123544873745E+04,      /* J = 25 */
(PID.TID 0000.0001)                 4.750448467975499E+04,      /* J = 26 */
(PID.TID 0000.0001)                 4.788391567392174E+04,      /* J = 27 */
(PID.TID 0000.0001)                 4.825944271092693E+04,      /* J = 28 */
(PID.TID 0000.0001)                 4.863098220111143E+04,      /* J = 29 */
(PID.TID 0000.0001)                 4.899845499569884E+04       /* J = 30 */
(PID.TID 0000.0001)     ;
(PID.TID 0000.0001) dxG =  /* dxG(:,1,:,1) ( units: m ) */
(PID.TID 0000.0001)                 2.052711702021451E+04,      /* I =  1 */
(PID.TID 0000.0001)                 2.051953983526162E+04,      /* I =  2 */
(PID.TID 0000.0001)                 2.051251425926268E+04,      /* I =  3 */
(PID.TID 0000.0001)                 2.050606148013825E+04,      /* I =  4 */
(PID.TID 0000.0001)                 2.050020059906299E+04,      /* I =  5 */
(PID.TID 0000.0001)                 2.049494867086169E+04,      /* I =  6 */
(PID.TID 0000.0001)                 2.049032075633103E+04,      /* I =  7 */
(PID.TID 0000.0001)                 2.048632995314923E+04,      /* I =  8 */
(PID.TID 0000.0001)                 2.048298743895549E+04,      /* I =  9 */
(PID.TID 0000.0001)                 2.048030251694177E+04,      /* I = 10 */
(PID.TID 0000.0001)                 2.047828270203973E+04,      /* I = 11 */
(PID.TID 0000.0001)                 2.047693414389448E+04,      /* I = 12 */
(PID.TID 0000.0001)     2 @  2.047624433858785E+04,             /* I = 13: 14 */
(PID.TID 0000.0001)                 2.047693414389443E+04,      /* I = 15 */
(PID.TID 0000.0001)                 2.047828270203978E+04,      /* I = 16 */
(PID.TID 0000.0001)                 2.048030251694177E+04,      /* I = 17 */
(PID.TID 0000.0001)                 2.048298743895548E+04,      /* I = 18 */
(PID.TID 0000.0001)                 2.048632995314927E+04,      /* I = 19 */
(PID.TID 0000.0001)                 2.049032075633093E+04,      /* I = 20 */
(PID.TID 0000.0001)                 2.049494867086174E+04,      /* I = 21 */
(PID.TID 0000.0001)                 2.050020059906297E+04,      /* I = 22 */
(PID.TID 0000.0001)                 2.050606148013830E+04,      /* I = 23 */
(PID.TID 0000.0001)                 2.051251425926268E+04,      /* I = 24 */
(PID.TID 0000.0001)                 2.051953983526163E+04,      /* I = 25 */
(PID.TID 0000.0001)                 2.052711702021443E+04,      /* I = 26 */
(PID.TID 0000.0001)                 2.053522248594683E+04,      /* I = 27 */
(PID.TID 0000.0001)                 2.054383070727552E+04,      /* I = 28 */
(PID.TID 0000.0001)                 2.055291390664790E+04,      /* I = 29 */
(PID.TID 0000.0001)                 2.056244198352907E+04       /* I = 30 */
(PID.TID 0000.0001)     ;
(PID.TID 0000.0001) dxG =  /* dxG(1,:,1,:) ( units: m ) */
(PID.TID 0000.0001)                 2.052711702021451E+04,      /* J =  1 */
(PID.TID 0000.0001)                 2.089954736357391E+04,      /* J =  2 */
(PID.TID 0000.0001)                 2.128641124518697E+04,      /* J =  3 */
(PID.TID 0000.0001)                 2.168771062037700E+04,      /* J =  4 */
(PID.TID 0000.0001)                 2.210344484655194E+04,      /* J =  5 */
(PID.TID 0000.0001)                 2.253361185972884E+04,      /* J =  6 */
(PID.TID 0000.0001)                 2.297820925105574E+04,      /* J =  7 */
(PID.TID 0000.0001)                 2.343723524028478E+04,      /* J =  8 */
(PID.TID 0000.0001)                 2.391068954427550E+04,      /* J =  9 */
(PID.TID 0000.0001)                 2.439857414125275E+04,      /* J = 10 */
(PID.TID 0000.0001)                 2.490089393241153E+04,      /* J = 11 */
(PID.TID 0000.0001)                 2.541765730414359E+04,      /* J = 12 */
(PID.TID 0000.0001)                 2.594887659459613E+04,      /* J = 13 */
(PID.TID 0000.0001)                 2.649456846940333E+04,      /* J = 14 */
(PID.TID 0000.0001)                 2.705475421181358E+04,      /* J = 15 */
(PID.TID 0000.0001)                 2.762945993231310E+04,      /* J = 16 */
(PID.TID 0000.0001)                 2.821871670385097E+04,      /* J = 17 */
(PID.TID 0000.0001)                 2.882256062780631E+04,      /* J = 18 */
(PID.TID 0000.0001)                 2.944103283669238E+04,      /* J = 19 */
(PID.TID 0000.0001)                 3.007417943861200E+04,      /* J = 20 */
(PID.TID 0000.0001)                 3.072205140902393E+04,      /* J = 21 */
(PID.TID 0000.0001)                 3.138470443467240E+04,      /* J = 22 */
(PID.TID 0000.0001)                 3.206219871470027E+04,      /* J = 23 */
(PID.TID 0000.0001)                 3.275459872326910E+04,      /* J = 24 */
(PID.TID 0000.0001)                 3.346197293831744E+04,      /* J = 25 */
(PID.TID 0000.0001)                 3.418439354048331E+04,      /* J = 26 */
(PID.TID 0000.0001)                 3.492193608585089E+04,      /* J = 27 */
(PID.TID 0000.0001)                 3.567467915738818E+04,      /* J = 28 */
(PID.TID 0000.0001)                 3.644270400216877E+04,      /* J = 29 */
(PID.TID 0000.0001)                 3.722609417427087E+04       /* J = 30 */
(PID.TID 0000.0001)     ;
(PID.TID 0000.0001) dyG =  /* dyG(:,1,:,1) ( units: m ) */
(PID.TID 0000.0001)                 3.696936823759973E+04,      /* I =  1 */
(PID.TID 0000.0001)                 3.704398547852144E+04,      /* I =  2 */
(PID.TID 0000.0001)                 3.711263318385338E+04,      /* I =  3 */
(PID.TID 0000.0001)                 3.717531082528212E+04,      /* I =  4 */
(PID.TID 0000.0001)                 3.723201816961422E+04,      /* I =  5 */
(PID.TID 0000.0001)                 3.728275520872145E+04,      /* I =  6 */
(PID.TID 0000.0001)                 3.732752209699158E+04,      /* I =  7 */
(PID.TID 0000.0001)                 3.736631909640826E+04,      /* I =  8 */
(PID.TID 0000.0001)                 3.739914652852553E+04,      /* I =  9 */
(PID.TID 0000.0001)                 3.742600473350589E+04,      /* I = 10 */
(PID.TID 0000.0001)                 3.744689403567852E+04,      /* I = 11 */
(PID.TID 0000.0001)                 3.746181471567877E+04,      /* I = 12 */
(PID.TID 0000.0001)                 3.747076698884368E+04,      /* I = 13 */
(PID.TID 0000.0001)                 3.747376174977726E+04,      /* I = 14 */
(PID.TID 0000.0001)                 3.747076698884368E+04,      /* I = 15 */
(PID.TID 0000.0001)                 3.746181471567877E+04,      /* I = 16 */
(PID.TID 0000.0001)                 3.744689403567852E+04,      /* I = 17 */
(PID.TID 0000.0001)                 3.742600473350589E+04,      /* I = 18 */
(PID.TID 0000.0001)                 3.739914652852552E+04,      /* I = 19 */
(PID.TID 0000.0001)                 3.736631909640826E+04,      /* I = 20 */
(PID.TID 0000.0001)                 3.732752209699157E+04,      /* I = 21 */
(PID.TID 0000.0001)                 3.728275520872146E+04,      /* I = 22 */
(PID.TID 0000.0001)                 3.723201816961422E+04,      /* I = 23 */
(PID.TID 0000.0001)                 3.717531082528211E+04,      /* I = 24 */
(PID.TID 0000.0001)                 3.711263318385338E+04,      /* I = 25 */
(PID.TID 0000.0001)                 3.704398547852145E+04,      /* I = 26 */
(PID.TID 0000.0001)                 3.696936823759972E+04,      /* I = 27 */
(PID.TID 0000.0001)                 3.688878236278851E+04,      /* I = 28 */
(PID.TID 0000.0001)                 3.680222921581766E+04,      /* I = 29 */
(PID.TID 0000.0001)                 3.670971071402137E+04       /* I = 30 */
(PID.TID 0000.0001)     ;
(PID.TID 0000.0001) dyG =  /* dyG(1,:,1,:) ( units: m ) */
(PID.TID 0000.0001)                 3.696936823759973E+04,      /* J =  1 */
(PID.TID 0000.0001)                 3.741746190559281E+04,      /* J =  2 */
(PID.TID 0000.0001)                 3.786390067184393E+04,      /* J =  3 */
(PID.TID 0000.0001)                 3.830858172733455E+04,      /* J =  4 */
(PID.TID 0000.0001)                 3.875140319955796E+04,      /* J =  5 */
(PID.TID 0000.0001)                 3.919226424948571E+04,      /* J =  6 */
(PID.TID 0000.0001)                 3.963106512715793E+04,      /* J =  7 */
(PID.TID 0000.0001)                 4.006770719102380E+04,      /* J =  8 */
(PID.TID 0000.0001)                 4.050209290047463E+04,      /* J =  9 */
(PID.TID 0000.0001)                 4.093412578484027E+04,      /* J = 10 */
(PID.TID 0000.0001)                 4.136371039407872E+04,      /* J = 11 */
(PID.TID 0000.0001)                 4.179075223673176E+04,      /* J = 12 */
(PID.TID 0000.0001)                 4.221515770920290E+04,      /* J = 13 */
(PID.TID 0000.0001)                 4.263683401805614E+04,      /* J = 14 */
(PID.TID 0000.0001)                 4.305568910412182E+04,      /* J = 15 */
(PID.TID 0000.0001)                 4.347163156363047E+04,      /* J = 16 */
(PID.TID 0000.0001)                 4.388457057225752E+04,      /* J = 17 */
(PID.TID 0000.0001)                 4.429441581934092E+04,      /* J = 18 */
(PID.TID 0000.0001)                 4.470107744374240E+04,      /* J = 19 */
(PID.TID 0000.0001)                 4.510446597891348E+04,      /* J = 20 */
(PID.TID 0000.0001)                 4.550449230395439E+04,      /* J = 21 */
(PID.TID 0000.0001)                 4.590106761654920E+04,      /* J = 22 */
(PID.TID 0000.0001)                 4.629410339849156E+04,      /* J = 23 */
(PID.TID 0000.0001)                 4.668351141269982E+04,      /* J = 24 */
(PID.TID 0000.0001)                 4.706920371856177E+04,      /* J = 25 */
(PID.TID 0000.0001)                 4.745109271730031E+04,      /* J = 26 */
(PID.TID 0000.0001)                 4.782909128417812E+04,      /* J = 27 */
(PID.TID 0000.0001)                 4.820311314005602E+04,      /* J = 28 */
(PID.TID 0000.0001)                 4.857307420014453E+04,      /* J = 29 */
(PID.TID 0000.0001)                 4.893889490827491E+04       /* J = 30 */
(PID.TID 0000.0001)     ;
(PID.TID 0000.0001) dxC =  /* dxC(:,1,:,1) ( units: m ) */
(PID.TID 0000.0001)                 2.071567651695695E+04,      /* I =  1 */
(PID.TID 0000.0001)                 2.070751892245589E+04,      /* I =  2 */
(PID.TID 0000.0001)                 2.069992855779408E+04,      /* I =  3 */
(PID.TID 0000.0001)                 2.069292717562287E+04,      /* I =  4 */
(PID.TID 0000.0001)                 2.068653446229046E+04,      /* I =  5 */
(PID.TID 0000.0001)                 2.068076808552306E+04,      /* I =  6 */
(PID.TID 0000.0001)                 2.067564373903614E+04,      /* I =  7 */
(PID.TID 0000.0001)                 2.067117518190149E+04,      /* I =  8 */
(PID.TID 0000.0001)                 2.066737427558298E+04,      /* I =  9 */
(PID.TID 0000.0001)                 2.066425102685107E+04,      /* I = 10 */
(PID.TID 0000.0001)                 2.066181364132844E+04,      /* I = 11 */
(PID.TID 0000.0001)                 2.066006869803818E+04,      /* I = 12 */
(PID.TID 0000.0001)                 2.065902266229015E+04,      /* I = 13 */
(PID.TID 0000.0001)                 2.065863826775786E+04,      /* I = 14 */
(PID.TID 0000.0001)                 2.065902266229016E+04,      /* I = 15 */
(PID.TID 0000.0001)                 2.066006869803813E+04,      /* I = 16 */
(PID.TID 0000.0001)                 2.066181364132850E+04,      /* I = 17 */
(PID.TID 0000.0001)                 2.066425102685108E+04,      /* I = 18 */
(PID.TID 0000.0001)                 2.066737427558298E+04,      /* I = 19 */
(PID.TID 0000.0001)                 2.067117518190149E+04,      /* I = 20 */
(PID.TID 0000.0001)                 2.067564373903615E+04,      /* I = 21 */
(PID.TID 0000.0001)                 2.068076808552304E+04,      /* I = 22 */
(PID.TID 0000.0001)                 2.068653446229045E+04,      /* I = 23 */
(PID.TID 0000.0001)                 2.069292717562287E+04,      /* I = 24 */
(PID.TID 0000.0001)                 2.069992855779413E+04,      /* I = 25 */
(PID.TID 0000.0001)                 2.070751892245584E+04,      /* I = 26 */
(PID.TID 0000.0001)                 2.071567651695691E+04,      /* I = 27 */
(PID.TID 0000.0001)                 2.072437747324421E+04,      /* I = 28 */
(PID.TID 0000.0001)                 2.073359574551806E+04,      /* I = 29 */
(PID.TID 0000.0001)                 2.074330305575613E+04       /* I = 30 */
(PID.TID 0000.0001)     ;
(PID.TID 0000.0001) dxC =  /* dxC(1,:,1,:) ( units: m ) */
(PID.TID 0000.0001)                 2.071567651695695E+04,      /* J =  1 */
(PID.TID 0000.0001)                 2.109563672137949E+04,      /* J =  2 */
(PID.TID 0000.0001)                 2.149002149497106E+04,      /* J =  3 */
(PID.TID 0000.0001)                 2.189882927482529E+04,      /* J =  4 */
(PID.TID 0000.0001)                 2.232205646389843E+04,      /* J =  5 */
(PID.TID 0000.0001)                 2.275969855854128E+04,      /* J =  6 */
(PID.TID 0000.0001)                 2.321175117362029E+04,      /* J =  7 */
(PID.TID 0000.0001)                 2.367821096276529E+04,      /* J =  8 */
(PID.TID 0000.0001)                 2.415907643347346E+04,      /* J =  9 */
(PID.TID 0000.0001)                 2.465434865814045E+04,      /* J = 10 */
(PID.TID 0000.0001)                 2.516403188365780E+04,      /* J = 11 */
(PID.TID 0000.0001)                 2.568813404310613E+04,      /* J = 12 */
(PID.TID 0000.0001)                 2.622666717399572E+04,      /* J = 13 */
(PID.TID 0000.0001)                 2.677964774799169E+04,      /* J = 14 */
(PID.TID 0000.0001)                 2.734709691757753E+04,      /* J = 15 */
(PID.TID 0000.0001)                 2.792904068517491E+04,      /* J = 16 */
(PID.TID 0000.0001)                 2.852551000032625E+04,      /* J = 17 */
(PID.TID 0000.0001)                 2.913654079081990E+04,      /* J = 18 */
(PID.TID 0000.0001)                 2.976217393306023E+04,      /* J = 19 */
(PID.TID 0000.0001)                 3.040245516699173E+04,      /* J = 20 */
(PID.TID 0000.0001)                 3.105743496108396E+04,      /* J = 21 */
(PID.TID 0000.0001)                 3.172716833208323E+04,      /* J = 22 */
(PID.TID 0000.0001)                 3.241171462422546E+04,      /* J = 23 */
(PID.TID 0000.0001)                 3.311113725244482E+04,      /* J = 24 */
(PID.TID 0000.0001)                 3.382550341391024E+04,      /* J = 25 */
(PID.TID 0000.0001)                 3.455488377140061E+04,      /* J = 26 */
(PID.TID 0000.0001)                 3.529935211332738E+04,      /* J = 27 */
(PID.TID 0000.0001)                 3.605898499520765E+04,      /* J = 28 */
(PID.TID 0000.0001)                 3.683386137397906E+04,      /* J = 29 */
(PID.TID 0000.0001)                 3.762406228407349E+04       /* J = 30 */
(PID.TID 0000.0001)     ;
(PID.TID 0000.0001) dyC =  /* dyC(:,1,:,1) ( units: m ) */
(PID.TID 0000.0001)                 3.678277710845771E+04,      /* I =  1 */
(PID.TID 0000.0001)                 3.685438685866048E+04,      /* I =  2 */
(PID.TID 0000.0001)                 3.692002588020908E+04,      /* I =  3 */
(PID.TID 0000.0001)                 3.697969453541307E+04,      /* I =  4 */
(PID.TID 0000.0001)                 3.703339337607873E+04,      /* I =  5 */
(PID.TID 0000.0001)                 3.708112307814123E+04,      /* I =  6 */
(PID.TID 0000.0001)                 3.712288438364359E+04,      /* I =  7 */
(PID.TID 0000.0001)                 3.715867804995441E+04,      /* I =  8 */
(PID.TID 0000.0001)                 3.718850480589901E+04,      /* I =  9 */
(PID.TID 0000.0001)                 3.721236531452968E+04,      /* I = 10 */
(PID.TID 0000.0001)                 3.723026014246432E+04,      /* I = 11 */
(PID.TID 0000.0001)                 3.724218973548726E+04,      /* I = 12 */
(PID.TID 0000.0001)     2 @  3.724815440020872E+04,             /* I = 13: 14 */
(PID.TID 0000.0001)                 3.724218973548726E+04,      /* I = 15 */
(PID.TID 0000.0001)                 3.723026014246432E+04,      /* I = 16 */
(PID.TID 0000.0001)                 3.721236531452968E+04,      /* I = 17 */
(PID.TID 0000.0001)                 3.718850480589901E+04,      /* I = 18 */
(PID.TID 0000.0001)                 3.715867804995440E+04,      /* I = 19 */
(PID.TID 0000.0001)                 3.712288438364359E+04,      /* I = 20 */
(PID.TID 0000.0001)                 3.708112307814122E+04,      /* I = 21 */
(PID.TID 0000.0001)                 3.703339337607873E+04,      /* I = 22 */
(PID.TID 0000.0001)                 3.697969453541307E+04,      /* I = 23 */
(PID.TID 0000.0001)                 3.692002588020908E+04,      /* I = 24 */
(PID.TID 0000.0001)                 3.685438685866047E+04,      /* I = 25 */
(PID.TID 0000.0001)                 3.678277710845772E+04,      /* I = 26 */
(PID.TID 0000.0001)                 3.670519653011381E+04,      /* I = 27 */
(PID.TID 0000.0001)                 3.662164536844059E+04,      /* I = 28 */
(PID.TID 0000.0001)                 3.653212430257830E+04,      /* I = 29 */
(PID.TID 0000.0001)                 3.643663454523116E+04       /* I = 30 */
(PID.TID 0000.0001)     ;
(PID.TID 0000.0001) dyC =  /* dyC(1,:,1,:) ( units: m ) */
(PID.TID 0000.0001)                 3.678277710845771E+04,      /* J =  1 */
(PID.TID 0000.0001)                 3.723168694115569E+04,      /* J =  2 */
(PID.TID 0000.0001)                 3.767901897410101E+04,      /* J =  3 */
(PID.TID 0000.0001)                 3.812467364657602E+04,      /* J =  4 */
(PID.TID 0000.0001)                 3.856855210935249E+04,      /* J =  5 */
(PID.TID 0000.0001)                 3.901055633269680E+04,      /* J =  6 */
(PID.TID 0000.0001)                 3.945058917911859E+04,      /* J =  7 */
(PID.TID 0000.0001)                 3.988855443472220E+04,      /* J =  8 */
(PID.TID 0000.0001)                 4.032435681898361E+04,      /* J =  9 */
(PID.TID 0000.0001)                 4.075790196435841E+04,      /* J = 10 */
(PID.TID 0000.0001)                 4.118909638222960E+04,      /* J = 11 */
(PID.TID 0000.0001)                 4.161784741043697E+04,      /* J = 12 */
(PID.TID 0000.0001)                 4.204406315499045E+04,      /* J = 13 */
(PID.TID 0000.0001)                 4.246765242091182E+04,      /* J = 14 */
(PID.TID 0000.0001)                 4.288852464034393E+04,      /* J = 15 */
(PID.TID 0000.0001)                 4.330658981118225E+04,      /* J = 16 */
(PID.TID 0000.0001)                 4.372175841431943E+04,      /* J = 17 */
(PID.TID 0000.0001)                 4.413394136293020E+04,      /* J = 18 */
(PID.TID 0000.0001)                 4.454304993440304E+04,      /* J = 19 */
(PID.TID 0000.0001)                 4.494899572325061E+04,      /* J = 20 */
(PID.TID 0000.0001)                 4.535169059286820E+04,      /* J = 21 */
(PID.TID 0000.0001)                 4.575104664412256E+04,      /* J = 22 */
(PID.TID 0000.0001)                 4.614697618947234E+04,      /* J = 23 */
(PID.TID 0000.0001)                 4.653939173844085E+04,      /* J = 24 */
(PID.TID 0000.0001)                 4.692820600744408E+04,      /* J = 25 */
(PID.TID 0000.0001)                 4.731333194957835E+04,      /* J = 26 */
(PID.TID 0000.0001)                 4.769468283927006E+04,      /* J = 27 */
(PID.TID 0000.0001)                 4.807217249390641E+04,      /* J = 28 */
(PID.TID 0000.0001)                 4.844571593362943E+04,      /* J = 29 */
(PID.TID 0000.0001)                 4.881523285497380E+04       /* J = 30 */
(PID.TID 0000.0001)     ;
(PID.TID 0000.0001) dxV =  /* dxV(:,1,:,1) ( units: m ) */
(PID.TID 0000.0001)                 2.053110526075532E+04,      /* I =  1 */
(PID.TID 0000.0001)                 2.052326088418283E+04,      /* I =  2 */
(PID.TID 0000.0001)                 2.051595672244828E+04,      /* I =  3 */
(PID.TID 0000.0001)                 2.050921502797681E+04,      /* I =  4 */
(PID.TID 0000.0001)                 2.050305593886370E+04,      /* I =  5 */
(PID.TID 0000.0001)                 2.049749752783181E+04,      /* I =  6 */
(PID.TID 0000.0001)                 2.049255584793284E+04,      /* I =  7 */
(PID.TID 0000.0001)                 2.048824497292525E+04,      /* I =  8 */
(PID.TID 0000.0001)                 2.048457703515834E+04,      /* I =  9 */
(PID.TID 0000.0001)                 2.048156226915133E+04,      /* I = 10 */
(PID.TID 0000.0001)                 2.047920906551970E+04,      /* I = 11 */
(PID.TID 0000.0001)                 2.047752414469434E+04,      /* I = 12 */
(PID.TID 0000.0001)                 2.047651405696554E+04,      /* I = 13 */
(PID.TID 0000.0001)                 2.047614194664622E+04,      /* I = 14 */
(PID.TID 0000.0001)                 2.047651405696559E+04,      /* I = 15 */
(PID.TID 0000.0001)                 2.047752414469430E+04,      /* I = 16 */
(PID.TID 0000.0001)                 2.047920906551971E+04,      /* I = 17 */
(PID.TID 0000.0001)                 2.048156226915138E+04,      /* I = 18 */
(PID.TID 0000.0001)                 2.048457703515829E+04,      /* I = 19 */
(PID.TID 0000.0001)                 2.048824497292535E+04,      /* I = 20 */
(PID.TID 0000.0001)                 2.049255584793274E+04,      /* I = 21 */
(PID.TID 0000.0001)                 2.049749752783187E+04,      /* I = 22 */
(PID.TID 0000.0001)                 2.050305593886373E+04,      /* I = 23 */
(PID.TID 0000.0001)                 2.050921502797675E+04,      /* I = 24 */
(PID.TID 0000.0001)                 2.051595672244826E+04,      /* I = 25 */
(PID.TID 0000.0001)                 2.052326088418290E+04,      /* I = 26 */
(PID.TID 0000.0001)                 2.053110526075532E+04,      /* I = 27 */
(PID.TID 0000.0001)                 2.053946543494557E+04,      /* I = 28 */
(PID.TID 0000.0001)                 2.054831476098181E+04,      /* I = 29 */
(PID.TID 0000.0001)                 2.055762430839241E+04       /* I = 30 */
(PID.TID 0000.0001)     ;
(PID.TID 0000.0001) dxV =  /* dxV(1,:,1,:) ( units: m ) */
(PID.TID 0000.0001)                 2.053110526075532E+04,      /* J =  1 */
(PID.TID 0000.0001)                 2.090385356266093E+04,      /* J =  2 */
(PID.TID 0000.0001)                 2.129102607314009E+04,      /* J =  3 */
(PID.TID 0000.0001)                 2.169262269996662E+04,      /* J =  4 */
(PID.TID 0000.0001)                 2.210864071595607E+04,      /* J =  5 */
(PID.TID 0000.0001)                 2.253907593617405E+04,      /* J =  6 */
(PID.TID 0000.0001)                 2.298392379458377E+04,      /* J =  7 */
(PID.TID 0000.0001)                 2.344318031700113E+04,      /* J =  8 */
(PID.TID 0000.0001)                 2.391684298864163E+04,      /* J =  9 */
(PID.TID 0000.0001)                 2.440491151699962E+04,      /* J = 10 */
(PID.TID 0000.0001)                 2.490738849171163E+04,      /* J = 11 */
(PID.TID 0000.0001)                 2.542427994477456E+04,      /* J = 12 */
(PID.TID 0000.0001)                 2.595559581485789E+04,      /* J = 13 */
(PID.TID 0000.0001)                 2.650135032062733E+04,      /* J = 14 */
(PID.TID 0000.0001)                 2.706156224833991E+04,      /* J = 15 */
(PID.TID 0000.0001)                 2.763625515890197E+04,      /* J = 16 */
(PID.TID 0000.0001)                 2.822545752042790E+04,      /* J = 17 */
(PID.TID 0000.0001)                 2.882920277162976E+04,      /* J = 18 */
(PID.TID 0000.0001)                 2.944752932187136E+04,      /* J = 19 */
(PID.TID 0000.0001)                 3.008048049319959E+04,      /* J = 20 */
(PID.TID 0000.0001)                 3.072810440966728E+04,      /* J = 21 */
(PID.TID 0000.0001)                 3.139045383903842E+04,      /* J = 22 */
(PID.TID 0000.0001)                 3.206758599174654E+04,      /* J = 23 */
(PID.TID 0000.0001)                 3.275956228156967E+04,      /* J = 24 */
(PID.TID 0000.0001)                 3.346644805244220E+04,      /* J = 25 */
(PID.TID 0000.0001)                 3.418831227550044E+04,      /* J = 26 */
(PID.TID 0000.0001)                 3.492522722017510E+04,      /* J = 27 */
(PID.TID 0000.0001)                 3.567726810399632E+04,      /* J = 28 */
(PID.TID 0000.0001)                 3.644451272859776E+04,      /* J = 29 */
(PID.TID 0000.0001)                 3.722704112152557E+04       /* J = 30 */
(PID.TID 0000.0001)     ;
(PID.TID 0000.0001) dyU =  /* dyU(:,1,:,1) ( units: m ) */
(PID.TID 0000.0001)                 3.674473316658630E+04,      /* I =  1 */
(PID.TID 0000.0001)                 3.681932833792822E+04,      /* I =  2 */
(PID.TID 0000.0001)                 3.688795269313092E+04,      /* I =  3 */
(PID.TID 0000.0001)                 3.695060647275718E+04,      /* I =  4 */
(PID.TID 0000.0001)                 3.700729014250917E+04,      /* I =  5 */
(PID.TID 0000.0001)                 3.705800432398131E+04,      /* I =  6 */
(PID.TID 0000.0001)                 3.710274973294064E+04,      /* I =  7 */
(PID.TID 0000.0001)                 3.714152712500728E+04,      /* I =  8 */
(PID.TID 0000.0001)                 3.717433724834998E+04,      /* I =  9 */
(PID.TID 0000.0001)                 3.720118080314009E+04,      /* I = 10 */
(PID.TID 0000.0001)                 3.722205840764935E+04,      /* I = 11 */
(PID.TID 0000.0001)                 3.723697057073888E+04,      /* I = 12 */
(PID.TID 0000.0001)                 3.724591767054543E+04,      /* I = 13 */
(PID.TID 0000.0001)                 3.724891083990022E+04,      /* I = 14 */
(PID.TID 0000.0001)                 3.724591767054542E+04,      /* I = 15 */
(PID.TID 0000.0001)                 3.723697057073889E+04,      /* I = 16 */
(PID.TID 0000.0001)                 3.722205840764935E+04,      /* I = 17 */
(PID.TID 0000.0001)                 3.720118080314008E+04,      /* I = 18 */
(PID.TID 0000.0001)                 3.717433724834998E+04,      /* I = 19 */
(PID.TID 0000.0001)                 3.714152712500728E+04,      /* I = 20 */
(PID.TID 0000.0001)                 3.710274973294063E+04,      /* I = 21 */
(PID.TID 0000.0001)                 3.705800432398131E+04,      /* I = 22 */
(PID.TID 0000.0001)                 3.700729014250917E+04,      /* I = 23 */
(PID.TID 0000.0001)                 3.695060647275716E+04,      /* I = 24 */
(PID.TID 0000.0001)                 3.688795269313094E+04,      /* I = 25 */
(PID.TID 0000.0001)                 3.681932833792821E+04,      /* I = 26 */
(PID.TID 0000.0001)                 3.674473316658630E+04,      /* I = 27 */
(PID.TID 0000.0001)                 3.666416724104654E+04,      /* I = 28 */
(PID.TID 0000.0001)                 3.657763101146962E+04,      /* I = 29 */
(PID.TID 0000.0001)                 3.648512541079492E+04       /* I = 30 */
(PID.TID 0000.0001)     ;
(PID.TID 0000.0001) dyU =  /* dyU(1,:,1,:) ( units: m ) */
(PID.TID 0000.0001)                 3.674473316658630E+04,      /* J =  1 */
(PID.TID 0000.0001)                 3.719361547538896E+04,      /* J =  2 */
(PID.TID 0000.0001)                 3.764089459751266E+04,      /* J =  3 */
(PID.TID 0000.0001)                 3.808646730382765E+04,      /* J =  4 */
(PID.TID 0000.0001)                 3.853023123895088E+04,      /* J =  5 */
(PID.TID 0000.0001)                 3.897208503739593E+04,      /* J =  6 */
(PID.TID 0000.0001)                 3.941192840112046E+04,      /* J =  7 */
(PID.TID 0000.0001)                 3.984966213263487E+04,      /* J =  8 */
(PID.TID 0000.0001)                 4.028518814419441E+04,      /* J =  9 */
(PID.TID 0000.0001)                 4.071840943468107E+04,      /* J = 10 */
(PID.TID 0000.0001)                 4.114923005120406E+04,      /* J = 11 */
(PID.TID 0000.0001)                 4.157755503103340E+04,      /* J = 12 */
(PID.TID 0000.0001)                 4.200329033666767E+04,      /* J = 13 */
(PID.TID 0000.0001)                 4.242634277960793E+04,      /* J = 14 */
(PID.TID 0000.0001)                 4.284661994092684E+04,      /* J = 15 */
(PID.TID 0000.0001)                 4.326403010205203E+04,      /* J = 16 */
(PID.TID 0000.0001)                 4.367848215462093E+04,      /* J = 17 */
(PID.TID 0000.0001)                 4.408988554208750E+04,      /* J = 18 */
(PID.TID 0000.0001)                 4.449815018464295E+04,      /* J = 19 */
(PID.TID 0000.0001)                 4.490318642518511E+04,      /* J = 20 */
(PID.TID 0000.0001)                 4.530490497491705E+04,      /* J = 21 */
(PID.TID 0000.0001)                 4.570321687598708E+04,      /* J = 22 */
(PID.TID 0000.0001)                 4.609803347024994E+04,      /* J = 23 */
(PID.TID 0000.0001)                 4.648926637992392E+04,      /* J = 24 */
(PID.TID 0000.0001)                 4.687682751321772E+04,      /* J = 25 */
(PID.TID 0000.0001)                 4.726062909013533E+04,      /* J = 26 */
(PID.TID 0000.0001)                 4.764058372401170E+04,      /* J = 27 */
(PID.TID 0000.0001)                 4.801660464021451E+04,      /* J = 28 */
(PID.TID 0000.0001)                 4.838860633247659E+04,      /* J = 29 */
(PID.TID 0000.0001)                 4.875650803021456E+04       /* J = 30 */
(PID.TID 0000.0001)     ;
(PID.TID 0000.0001) rA  =  /* rA (:,1,:,1) ( units: m^2 ) */
(PID.TID 0000.0001)                 7.665113621396177E+08,      /* I =  1 */
(PID.TID 0000.0001)                 7.677029697239892E+08,      /* I =  2 */
(PID.TID 0000.0001)                 7.687913877455838E+08,      /* I =  3 */
(PID.TID 0000.0001)                 7.697775979751738E+08,      /* I =  4 */
(PID.TID 0000.0001)                 7.706625466485583E+08,      /* I =  5 */
(PID.TID 0000.0001)                 7.714470546020026E+08,      /* I =  6 */
(PID.TID 0000.0001)                 7.721318586456149E+08,      /* I =  7 */
(PID.TID 0000.0001)                 7.727176271684608E+08,      /* I =  8 */
(PID.TID 0000.0001)                 7.732049082776864E+08,      /* I =  9 */
(PID.TID 0000.0001)                 7.735941717305043E+08,      /* I = 10 */
(PID.TID 0000.0001)                 7.738858051500469E+08,      /* I = 11 */
(PID.TID 0000.0001)                 7.740801100790358E+08,      /* I = 12 */
(PID.TID 0000.0001)                 7.741766386182301E+08,      /* I = 13 */
(PID.TID 0000.0001)                 7.741766369784317E+08,      /* I = 14 */
(PID.TID 0000.0001)                 7.740801094843833E+08,      /* I = 15 */
(PID.TID 0000.0001)                 7.738858062852919E+08,      /* I = 16 */
(PID.TID 0000.0001)                 7.735941726495122E+08,      /* I = 17 */
(PID.TID 0000.0001)                 7.732049061873938E+08,      /* I = 18 */
(PID.TID 0000.0001)                 7.727176277450933E+08,      /* I = 19 */
(PID.TID 0000.0001)                 7.721318658895597E+08,      /* I = 20 */
(PID.TID 0000.0001)                 7.714470531424019E+08,      /* I = 21 */
(PID.TID 0000.0001)                 7.706625470810328E+08,      /* I = 22 */
(PID.TID 0000.0001)                 7.697776024260553E+08,      /* I = 23 */
(PID.TID 0000.0001)                 7.687913844659867E+08,      /* I = 24 */
(PID.TID 0000.0001)                 7.677029712196296E+08,      /* I = 25 */
(PID.TID 0000.0001)                 7.665113646083255E+08,      /* I = 26 */
(PID.TID 0000.0001)                 7.652154604170089E+08,      /* I = 27 */
(PID.TID 0000.0001)                 7.638140926048064E+08,      /* I = 28 */
(PID.TID 0000.0001)                 7.623059927966076E+08,      /* I = 29 */
(PID.TID 0000.0001)                 7.606898330980235E+08       /* I = 30 */
(PID.TID 0000.0001)     ;
(PID.TID 0000.0001) rA  =  /* rA (1,:,1,:) ( units: m^2 ) */
(PID.TID 0000.0001)                 7.665113621396177E+08,      /* J =  1 */
(PID.TID 0000.0001)                 7.900134359449342E+08,      /* J =  2 */
(PID.TID 0000.0001)                 8.143679155417176E+08,      /* J =  3 */
(PID.TID 0000.0001)                 8.395900636155584E+08,      /* J =  4 */
(PID.TID 0000.0001)                 8.656947784023314E+08,      /* J =  5 */
(PID.TID 0000.0001)                 8.926966010402582E+08,      /* J =  6 */
(PID.TID 0000.0001)                 9.206097737377057E+08,      /* J =  7 */
(PID.TID 0000.0001)                 9.494482582794807E+08,      /* J =  8 */
(PID.TID 0000.0001)                 9.792257431806778E+08,      /* J =  9 */
(PID.TID 0000.0001)                 1.009955679131553E+09,      /* J = 10 */
(PID.TID 0000.0001)                 1.041651296044221E+09,      /* J = 11 */
(PID.TID 0000.0001)                 1.074325614369065E+09,      /* J = 12 */
(PID.TID 0000.0001)                 1.107991467925779E+09,      /* J = 13 */
(PID.TID 0000.0001)                 1.142661498173082E+09,      /* J = 14 */
(PID.TID 0000.0001)                 1.178348167164929E+09,      /* J = 15 */
(PID.TID 0000.0001)                 1.215063762235644E+09,      /* J = 16 */
(PID.TID 0000.0001)                 1.252820414073754E+09,      /* J = 17 */
(PID.TID 0000.0001)                 1.291630043617734E+09,      /* J = 18 */
(PID.TID 0000.0001)                 1.331504416619858E+09,      /* J = 19 */
(PID.TID 0000.0001)                 1.372455096362339E+09,      /* J = 20 */
(PID.TID 0000.0001)                 1.414493440828222E+09,      /* J = 21 */
(PID.TID 0000.0001)                 1.457630613639386E+09,      /* J = 22 */
(PID.TID 0000.0001)                 1.501877517761831E+09,      /* J = 23 */
(PID.TID 0000.0001)                 1.547244834049951E+09,      /* J = 24 */
(PID.TID 0000.0001)                 1.593742963439136E+09,      /* J = 25 */
(PID.TID 0000.0001)                 1.641382020566774E+09,      /* J = 26 */
(PID.TID 0000.0001)                 1.690171807481416E+09,      /* J = 27 */
(PID.TID 0000.0001)                 1.740121820832662E+09,      /* J = 28 */
(PID.TID 0000.0001)                 1.791241246411172E+09,      /* J = 29 */
(PID.TID 0000.0001)                 1.843539059771026E+09       /* J = 30 */
(PID.TID 0000.0001)     ;
(PID.TID 0000.0001) rAw =  /* rAw(:,1,:,1) ( units: m^2 ) */
(PID.TID 0000.0001)                 7.658765213139513E+08,      /* I =  1 */
(PID.TID 0000.0001)                 7.671201328724998E+08,      /* I =  2 */
(PID.TID 0000.0001)                 7.682600121490355E+08,      /* I =  3 */
(PID.TID 0000.0001)                 7.692972101823016E+08,      /* I =  4 */
(PID.TID 0000.0001)                 7.702326756407654E+08,      /* I =  5 */
(PID.TID 0000.0001)                 7.710673044850856E+08,      /* I =  6 */
(PID.TID 0000.0001)                 7.718018764844863E+08,      /* I =  7 */
(PID.TID 0000.0001)                 7.724370884091616E+08,      /* I =  8 */
(PID.TID 0000.0001)                 7.729735468223690E+08,      /* I =  9 */
(PID.TID 0000.0001)                 7.734117650170708E+08,      /* I = 10 */
(PID.TID 0000.0001)                 7.737521718456172E+08,      /* I = 11 */
(PID.TID 0000.0001)                 7.739951054308500E+08,      /* I = 12 */
(PID.TID 0000.0001)                 7.741408739107244E+08,      /* I = 13 */
(PID.TID 0000.0001)                 7.741880730050739E+08,      /* I = 14 */
(PID.TID 0000.0001)                 7.741408710636016E+08,      /* I = 15 */
(PID.TID 0000.0001)                 7.739951071427275E+08,      /* I = 16 */
(PID.TID 0000.0001)                 7.737521718095777E+08,      /* I = 17 */
(PID.TID 0000.0001)                 7.734117675938969E+08,      /* I = 18 */
(PID.TID 0000.0001)                 7.729735457051437E+08,      /* I = 19 */
(PID.TID 0000.0001)                 7.724370889497546E+08,      /* I = 20 */
(PID.TID 0000.0001)                 7.718018793856685E+08,      /* I = 21 */
(PID.TID 0000.0001)                 7.710673053320146E+08,      /* I = 22 */
(PID.TID 0000.0001)                 7.702326816053071E+08,      /* I = 23 */
(PID.TID 0000.0001)                 7.692972065242898E+08,      /* I = 24 */
(PID.TID 0000.0001)                 7.682600115363635E+08,      /* I = 25 */
(PID.TID 0000.0001)                 7.671201363863536E+08,      /* I = 26 */
(PID.TID 0000.0001)                 7.658765213499908E+08,      /* I = 27 */
(PID.TID 0000.0001)                 7.645280345158333E+08,      /* I = 28 */
(PID.TID 0000.0001)                 7.630734673343852E+08,      /* I = 29 */
(PID.TID 0000.0001)                 7.615115062009304E+08       /* I = 30 */
(PID.TID 0000.0001)     ;
(PID.TID 0000.0001) rAw =  /* rAw(1,:,1,:) ( units: m^2 ) */
(PID.TID 0000.0001)                 7.658765213139513E+08,      /* J =  1 */
(PID.TID 0000.0001)                 7.893768970448780E+08,      /* J =  2 */
(PID.TID 0000.0001)                 8.137283914516071E+08,      /* J =  3 */
(PID.TID 0000.0001)                 8.389460603348250E+08,      /* J =  4 */
(PID.TID 0000.0001)                 8.650445848102766E+08,      /* J =  5 */
(PID.TID 0000.0001)                 8.920382782103341E+08,      /* J =  6 */
(PID.TID 0000.0001)                 9.199411445401106E+08,      /* J =  7 */
(PID.TID 0000.0001)                 9.487668893433769E+08,      /* J =  8 */
(PID.TID 0000.0001)                 9.785289545527842E+08,      /* J =  9 */
(PID.TID 0000.0001)                 1.009240515336406E+09,      /* J = 10 */
(PID.TID 0000.0001)                 1.040914522930714E+09,      /* J = 11 */
(PID.TID 0000.0001)                 1.073563715488477E+09,      /* J = 12 */
(PID.TID 0000.0001)                 1.107200612276400E+09,      /* J = 13 */
(PID.TID 0000.0001)                 1.141837554111466E+09,      /* J = 14 */
(PID.TID 0000.0001)                 1.177486672294872E+09,      /* J = 15 */
(PID.TID 0000.0001)                 1.214159933192917E+09,      /* J = 16 */
(PID.TID 0000.0001)                 1.251869095602249E+09,      /* J = 17 */
(PID.TID 0000.0001)                 1.290625742284441E+09,      /* J = 18 */
(PID.TID 0000.0001)                 1.330441258846839E+09,      /* J = 19 */
(PID.TID 0000.0001)                 1.371326820624166E+09,      /* J = 20 */
(PID.TID 0000.0001)                 1.413293399742275E+09,      /* J = 21 */
(PID.TID 0000.0001)                 1.456351737475827E+09,      /* J = 22 */
(PID.TID 0000.0001)                 1.500512320083793E+09,      /* J = 23 */
(PID.TID 0000.0001)                 1.545785394792978E+09,      /* J = 24 */
(PID.TID 0000.0001)                 1.592180902277974E+09,      /* J = 25 */
(PID.TID 0000.0001)                 1.639708504465653E+09,      /* J = 26 */
(PID.TID 0000.0001)                 1.688377519501836E+09,      /* J = 27 */
(PID.TID 0000.0001)                 1.738196956421325E+09,      /* J = 28 */
(PID.TID 0000.0001)                 1.789175499722981E+09,      /* J = 29 */
(PID.TID 0000.0001)                 1.841321602441802E+09       /* J = 30 */
(PID.TID 0000.0001)     ;
(PID.TID 0000.0001) rAs =  /* rAs(:,1,:,1) ( units: m^2 ) */
(PID.TID 0000.0001)                 7.550751050606852E+08,      /* I =  1 */
(PID.TID 0000.0001)                 7.562658447772087E+08,      /* I =  2 */
(PID.TID 0000.0001)                 7.573533970032284E+08,      /* I =  3 */
(PID.TID 0000.0001)                 7.583387692957978E+08,      /* I =  4 */
(PID.TID 0000.0001)                 7.592229121974397E+08,      /* I =  5 */
(PID.TID 0000.0001)                 7.600066705467438E+08,      /* I =  6 */
(PID.TID 0000.0001)                 7.606907923080522E+08,      /* I =  7 */
(PID.TID 0000.0001)                 7.612759532224941E+08,      /* I =  8 */
(PID.TID 0000.0001)                 7.617627129118443E+08,      /* I =  9 */
(PID.TID 0000.0001)                 7.621515550445726E+08,      /* I = 10 */
(PID.TID 0000.0001)                 7.624428588466020E+08,      /* I = 11 */
(PID.TID 0000.0001)                 7.626369483673384E+08,      /* I = 12 */
(PID.TID 0000.0001)                 7.627333738515058E+08,      /* I = 13 */
(PID.TID 0000.0001)                 7.627333728604188E+08,      /* I = 14 */
(PID.TID 0000.0001)                 7.626369508901051E+08,      /* I = 15 */
(PID.TID 0000.0001)                 7.624428655319341E+08,      /* I = 16 */
(PID.TID 0000.0001)                 7.621515526659639E+08,      /* I = 17 */
(PID.TID 0000.0001)                 7.617627197953936E+08,      /* I = 18 */
(PID.TID 0000.0001)                 7.612759510961621E+08,      /* I = 19 */
(PID.TID 0000.0001)                 7.606907969030919E+08,      /* I = 20 */
(PID.TID 0000.0001)                 7.600066694295187E+08,      /* I = 21 */
(PID.TID 0000.0001)                 7.592229103594238E+08,      /* I = 22 */
(PID.TID 0000.0001)                 7.583387684488690E+08,      /* I = 23 */
(PID.TID 0000.0001)                 7.573533915792797E+08,      /* I = 24 */
(PID.TID 0000.0001)                 7.562658465071062E+08,      /* I = 25 */
(PID.TID 0000.0001)                 7.550751079979067E+08,      /* I = 26 */
(PID.TID 0000.0001)                 7.537800585200102E+08,      /* I = 27 */
(PID.TID 0000.0001)                 7.523795064624999E+08,      /* I = 28 */
(PID.TID 0000.0001)                 7.508721675027735E+08,      /* I = 29 */
(PID.TID 0000.0001)                 7.492566800675046E+08       /* I = 30 */
(PID.TID 0000.0001)     ;
(PID.TID 0000.0001) rAs =  /* rAs(1,:,1,:) ( units: m^2 ) */
(PID.TID 0000.0001)                 7.550751050606852E+08,      /* J =  1 */
(PID.TID 0000.0001)                 7.781568160584769E+08,      /* J =  2 */
(PID.TID 0000.0001)                 8.020831616625657E+08,      /* J =  3 */
(PID.TID 0000.0001)                 8.268695937660589E+08,      /* J =  4 */
(PID.TID 0000.0001)                 8.525311818286231E+08,      /* J =  5 */
(PID.TID 0000.0001)                 8.790826547724357E+08,      /* J =  6 */
(PID.TID 0000.0001)                 9.065383887828039E+08,      /* J =  7 */
(PID.TID 0000.0001)                 9.349124897125442E+08,      /* J =  8 */
(PID.TID 0000.0001)                 9.642187819277472E+08,      /* J =  9 */
(PID.TID 0000.0001)                 9.944708240750725E+08,      /* J = 10 */
(PID.TID 0000.0001)                 1.025681954725808E+09,      /* J = 11 */
(PID.TID 0000.0001)                 1.057865313008499E+09,      /* J = 12 */
(PID.TID 0000.0001)                 1.091033805921100E+09,      /* J = 13 */
(PID.TID 0000.0001)                 1.125200178247652E+09,      /* J = 14 */
(PID.TID 0000.0001)                 1.160376979600140E+09,      /* J = 15 */
(PID.TID 0000.0001)                 1.196576586510721E+09,      /* J = 16 */
(PID.TID 0000.0001)                 1.233811208089928E+09,      /* J = 17 */
(PID.TID 0000.0001)                 1.272092866313053E+09,      /* J = 18 */
(PID.TID 0000.0001)                 1.311433405822894E+09,      /* J = 19 */
(PID.TID 0000.0001)                 1.351844507714875E+09,      /* J = 20 */
(PID.TID 0000.0001)                 1.393337606051485E+09,      /* J = 21 */
(PID.TID 0000.0001)                 1.435923987908001E+09,      /* J = 22 */
(PID.TID 0000.0001)                 1.479614675036705E+09,      /* J = 23 */
(PID.TID 0000.0001)                 1.524420466465598E+09,      /* J = 24 */
(PID.TID 0000.0001)                 1.570351910729954E+09,      /* J = 25 */
(PID.TID 0000.0001)                 1.617419255741331E+09,      /* J = 26 */
(PID.TID 0000.0001)                 1.665632470339211E+09,      /* J = 27 */
(PID.TID 0000.0001)                 1.715001205152071E+09,      /* J = 28 */
(PID.TID 0000.0001)                 1.765534790867491E+09,      /* J = 29 */
(PID.TID 0000.0001)                 1.817242347954489E+09       /* J = 30 */
(PID.TID 0000.0001)     ;
(PID.TID 0000.0001) globalArea = /* Integrated horizontal Area (m^2) */
(PID.TID 0000.0001)                 3.580138611494435E+14
(PID.TID 0000.0001)     ;
(PID.TID 0000.0001) hasWetCSCorners = /* Domain contains CS corners (True/False) */
(PID.TID 0000.0001)                   F
(PID.TID 0000.0001)     ;
(PID.TID 0000.0001) // =======================================================
(PID.TID 0000.0001) // End of Model config. summary
(PID.TID 0000.0001) // =======================================================
(PID.TID 0000.0001) 
(PID.TID 0000.0001) == Packages configuration : Check & print summary ==
(PID.TID 0000.0001) 
(PID.TID 0000.0001) GGL90_CHECK: #define ALLOW_GGL90
(PID.TID 0000.0001) GGL90_CHECK: Some form of convection has been enabled
(PID.TID 0000.0001) GMREDI_CHECK: #define GMREDI
(PID.TID 0000.0001) GM_AdvForm =     /* if FALSE => use SkewFlux Form */
(PID.TID 0000.0001)                   T
(PID.TID 0000.0001)     ;
(PID.TID 0000.0001) GM_InMomAsStress = /* if TRUE => apply as Eddy Stress */
(PID.TID 0000.0001)                   F
(PID.TID 0000.0001)     ;
(PID.TID 0000.0001) GM_AdvSeparate = /* Calc Bolus & Euler Adv. separately */
(PID.TID 0000.0001)                   F
(PID.TID 0000.0001)     ;
(PID.TID 0000.0001) GM_ExtraDiag =   /* Tensor Extra Diag (line 1&2) non 0 */
(PID.TID 0000.0001)                   T
(PID.TID 0000.0001)     ;
(PID.TID 0000.0001) GM_isopycK =    /* Background Isopyc. Diffusivity [m^2/s] */
(PID.TID 0000.0001)                 1.000000000000000E+03
(PID.TID 0000.0001)     ;
(PID.TID 0000.0001) GM_skewflx*K =  /* Background GM_SkewFlx Diffusivity [m^2/s] */
(PID.TID 0000.0001)                 0.000000000000000E+00
(PID.TID 0000.0001)     ;
(PID.TID 0000.0001) GM_advec*K =    /* Backg. GM-Advec(=Bolus) Diffusivity [m^2/s]*/
(PID.TID 0000.0001)                 1.000000000000000E+03
(PID.TID 0000.0001)     ;
(PID.TID 0000.0001) GM_Kmin_horiz = /* Minimum Horizontal Diffusivity [m^2/s] */
(PID.TID 0000.0001)                 1.000000000000000E+02
(PID.TID 0000.0001)     ;
(PID.TID 0000.0001) GM_Visbeck_alpha = /* Visbeck alpha coeff. [-] */
(PID.TID 0000.0001)                 0.000000000000000E+00
(PID.TID 0000.0001)     ;
(PID.TID 0000.0001) GM_Small_Number =  /* epsilon used in slope calc */
(PID.TID 0000.0001)                 9.999999999999999E-21
(PID.TID 0000.0001)     ;
(PID.TID 0000.0001) GM_slopeSqCutoff = /* Slope^2 cut-off value */
(PID.TID 0000.0001)                 1.000000000000000E+08
(PID.TID 0000.0001)     ;
(PID.TID 0000.0001) GM_taper_scheme =  /* Type of Tapering/Clipping scheme */
(PID.TID 0000.0001)               'stableGmAdjTap                          '
(PID.TID 0000.0001)     ;
(PID.TID 0000.0001) GM_maxSlope =  /* Maximum Slope (Tapering/Clipping) */
(PID.TID 0000.0001)                 4.000000000000000E-03
(PID.TID 0000.0001)     ;
(PID.TID 0000.0001) GM_facTrL2dz = /* Minimum Trans.Layer Thick. (factor of dz) */
(PID.TID 0000.0001)                 1.000000000000000E+00
(PID.TID 0000.0001)     ;
(PID.TID 0000.0001) GM_facTrL2ML = /* Max.Trans.Layer Thick. (factor of MxL Depth)*/
(PID.TID 0000.0001)                 5.000000000000000E+00
(PID.TID 0000.0001)     ;
(PID.TID 0000.0001) GM_maxTransLay = /* Maximum Transition Layer Thickness [m] */
(PID.TID 0000.0001)                 5.000000000000000E+02
(PID.TID 0000.0001)     ;
(PID.TID 0000.0001) GM_UseBVP = /* if TRUE => use bvp a la Ferrari et al. (2010) */
(PID.TID 0000.0001)                   F
(PID.TID 0000.0001)     ;
(PID.TID 0000.0001) GM_BVP_ModeNumber = /* Vertical mode number for BVP wave speed */
(PID.TID 0000.0001)                       1
(PID.TID 0000.0001)     ;
(PID.TID 0000.0001) GM_BVP_cMin = /* Minimum wave speed for BVP [m/s] */
(PID.TID 0000.0001)                 1.000000000000000E-01
(PID.TID 0000.0001)     ;
(PID.TID 0000.0001) GM_useSubMeso = /* if TRUE => use Sub-Meso param. (B.Fox-Kemper) */
(PID.TID 0000.0001)                   F
(PID.TID 0000.0001)     ;
(PID.TID 0000.0001) subMeso_Ceff = /* efficiency coeff. of Mixed-Layer Eddies [-] */
(PID.TID 0000.0001)                 7.000000000000001E-02
(PID.TID 0000.0001)     ;
(PID.TID 0000.0001) subMeso_invTau = /* inverse of Sub-Meso mixing time-scale [/s] */
(PID.TID 0000.0001)                 2.000000000000000E-06
(PID.TID 0000.0001)     ;
(PID.TID 0000.0001) subMeso_LfMin = /* minimum length-scale "Lf" [m] */
(PID.TID 0000.0001)                 1.000000000000000E+03
(PID.TID 0000.0001)     ;
(PID.TID 0000.0001) subMeso_Lmax = /* maximum grid-scale length [m] */
(PID.TID 0000.0001)                 1.100000000000000E+05
(PID.TID 0000.0001)     ;
(PID.TID 0000.0001) SALT_PLUME_CHECK: #define SALT_PLUME
(PID.TID 0000.0001) GAD_CHECK: #define ALLOW_GENERIC_ADVDIFF
(PID.TID 0000.0001) // =======================================================
(PID.TID 0000.0001) // Check Model config. (CONFIG_CHECK):
(PID.TID 0000.0001) // CONFIG_CHECK : Normal End
(PID.TID 0000.0001) // =======================================================
(PID.TID 0000.0001) 
(PID.TID 0000.0001)  nRecords = 403 ; filePrec =  64 ; fileIter =     26280
(PID.TID 0000.0001)     nDims =   2 , dims:
(PID.TID 0000.0001)    1:  90   1  90
(PID.TID 0000.0001)    2:1170   11170
(PID.TID 0000.0001)     nFlds =  11 , nFl3D =   8 , fields:
(PID.TID 0000.0001)  >Uvel    < >Vvel    < >Theta   < >Salt    < >GuNm1   < >GuNm2   < >GvNm1   < >GvNm2   < >EtaN    < >dEtaHdt < >EtaH    <
(PID.TID 0000.0001) missingVal=  1.00000000000000E+00 ; nTimRec =   1 , timeList:
(PID.TID 0000.0001)   9.460800000000E+07
(PID.TID 0000.0001) READ_MFLDS_3D_RL: read field: "Uvel    ", #   1 in fldList, rec=   1
(PID.TID 0000.0001) READ_MFLDS_3D_RL: read field: "Vvel    ", #   2 in fldList, rec=   2
(PID.TID 0000.0001) READ_MFLDS_3D_RL: read field: "Theta   ", #   3 in fldList, rec=   3
(PID.TID 0000.0001) READ_MFLDS_3D_RL: read field: "Salt    ", #   4 in fldList, rec=   4
(PID.TID 0000.0001) READ_MFLDS_3D_RL: read field: "GuNm1   ", #   5 in fldList, rec=   5
(PID.TID 0000.0001) READ_MFLDS_3D_RL: read field: "GvNm1   ", #   7 in fldList, rec=   7
(PID.TID 0000.0001) READ_MFLDS_3D_RL: read field: "EtaN    ", #   9 in fldList, rec= 401
(PID.TID 0000.0001) READ_MFLDS_3D_RL: read field: "dEtaHdt ", #  10 in fldList, rec= 402
(PID.TID 0000.0001) READ_MFLDS_3D_RL: read field: "EtaH    ", #  11 in fldList, rec= 403
(PID.TID 0000.0001) READ_MFLDS_CHECK: - normal end ; reset MFLDS file-name: pickup.0000000001
(PID.TID 0000.0001) // =======================================================
(PID.TID 0000.0001) // Model current state
(PID.TID 0000.0001) // =======================================================
(PID.TID 0000.0001) 
(PID.TID 0000.0001) SOLVE_FOR_PRESSURE: putPmEinXvector =    F
 cg2d: Sum(rhs),rhsMax =   2.94384092466852E+00  6.16957016247081E-02
(PID.TID 0000.0001)      cg2d_init_res =   1.22145414489528E+01
(PID.TID 0000.0001)      cg2d_iters(min,last) =      -1     129
(PID.TID 0000.0001)      cg2d_last_res =   6.68520068633518E-06
(PID.TID 0000.0001) // =======================================================
(PID.TID 0000.0001) // Begin MONITOR dynamic field statistics
(PID.TID 0000.0001) // =======================================================
(PID.TID 0000.0001) %MON time_tsnumber                =                     2
(PID.TID 0000.0001) %MON time_secondsf                =   7.2000000000000E+03
(PID.TID 0000.0001) %MON dynstat_eta_max              =   1.1595775492255E+00
(PID.TID 0000.0001) %MON dynstat_eta_min              =  -4.5607584785776E+00
(PID.TID 0000.0001) %MON dynstat_eta_mean             =  -1.4899694472214E-03
(PID.TID 0000.0001) %MON dynstat_eta_sd               =   7.3741799186398E-01
(PID.TID 0000.0001) %MON dynstat_eta_del2             =   1.0396015366440E-04
(PID.TID 0000.0001) %MON dynstat_uvel_max             =   1.0513064134151E+00
(PID.TID 0000.0001) %MON dynstat_uvel_min             =  -9.6087156344979E-01
(PID.TID 0000.0001) %MON dynstat_uvel_mean            =   1.6129792437888E-03
(PID.TID 0000.0001) %MON dynstat_uvel_sd              =   2.2013777140185E-02
(PID.TID 0000.0001) %MON dynstat_uvel_del2            =   1.9206164011165E-05
(PID.TID 0000.0001) %MON dynstat_vvel_max             =   8.6189947709015E-01
(PID.TID 0000.0001) %MON dynstat_vvel_min             =  -1.0173254313427E+00
(PID.TID 0000.0001) %MON dynstat_vvel_mean            =   1.1771865237477E-03
(PID.TID 0000.0001) %MON dynstat_vvel_sd              =   2.4134757229598E-02
(PID.TID 0000.0001) %MON dynstat_vvel_del2            =   2.0580593089409E-05
(PID.TID 0000.0001) %MON dynstat_wvel_max             =   2.3335063909394E-03
(PID.TID 0000.0001) %MON dynstat_wvel_min             =  -1.3520963358745E-03
(PID.TID 0000.0001) %MON dynstat_wvel_mean            =   1.5894641465052E-07
(PID.TID 0000.0001) %MON dynstat_wvel_sd              =   3.3746882578243E-05
(PID.TID 0000.0001) %MON dynstat_wvel_del2            =   4.7547963287432E-08
(PID.TID 0000.0001) %MON dynstat_theta_max            =   3.2663417329232E+01
(PID.TID 0000.0001) %MON dynstat_theta_min            =  -2.0421333294398E+00
(PID.TID 0000.0001) %MON dynstat_theta_mean           =   3.5905875704683E+00
(PID.TID 0000.0001) %MON dynstat_theta_sd             =   4.4366108866382E+00
(PID.TID 0000.0001) %MON dynstat_theta_del2           =   1.0900784197511E-04
(PID.TID 0000.0001) %MON dynstat_salt_max             =   4.0711528387142E+01
(PID.TID 0000.0001) %MON dynstat_salt_min             =   1.9079608552756E+01
(PID.TID 0000.0001) %MON dynstat_salt_mean            =   3.4726305660015E+01
(PID.TID 0000.0001) %MON dynstat_salt_sd              =   3.7584306096537E-01
(PID.TID 0000.0001) %MON dynstat_salt_del2            =   3.1457173314786E-05
(PID.TID 0000.0001) %MON dynstat_sst_max              =   3.2663417329232E+01
(PID.TID 0000.0001) %MON dynstat_sst_min              =  -1.9593829505118E+00
(PID.TID 0000.0001) %MON dynstat_sst_mean             =   1.8511299455531E+01
(PID.TID 0000.0001) %MON dynstat_sst_sd               =   1.0084081169362E+01
(PID.TID 0000.0001) %MON dynstat_sst_del2             =   8.7843159951859E-04
(PID.TID 0000.0001) %MON dynstat_sss_max              =   3.9690064710014E+01
(PID.TID 0000.0001) %MON dynstat_sss_min              =   2.7230492747374E+01
(PID.TID 0000.0001) %MON dynstat_sss_mean             =   3.4873787977171E+01
(PID.TID 0000.0001) %MON dynstat_sss_sd               =   9.5607897841678E-01
(PID.TID 0000.0001) %MON dynstat_sss_del2             =   6.4484641645840E-04
(PID.TID 0000.0001) %MON forcing_qnet_max             =   9.7282611083984E+02
(PID.TID 0000.0001) %MON forcing_qnet_min             =  -1.4312313232422E+03
(PID.TID 0000.0001) %MON forcing_qnet_mean            =   1.9720195945405E+01
(PID.TID 0000.0001) %MON forcing_qnet_sd              =   2.0768175779796E+02
(PID.TID 0000.0001) %MON forcing_qnet_del2            =   5.9551037134868E-01
(PID.TID 0000.0001) %MON forcing_qsw_max              =   0.0000000000000E+00
(PID.TID 0000.0001) %MON forcing_qsw_min              =   0.0000000000000E+00
(PID.TID 0000.0001) %MON forcing_qsw_mean             =   0.0000000000000E+00
(PID.TID 0000.0001) %MON forcing_qsw_sd               =   0.0000000000000E+00
(PID.TID 0000.0001) %MON forcing_qsw_del2             =   0.0000000000000E+00
(PID.TID 0000.0001) %MON forcing_empmr_max            =   2.9937066137791E-03
(PID.TID 0000.0001) %MON forcing_empmr_min            =  -3.7504169344902E-01
(PID.TID 0000.0001) %MON forcing_empmr_mean           =  -8.6713249251950E-06
(PID.TID 0000.0001) %MON forcing_empmr_sd             =   1.5127732566078E-03
(PID.TID 0000.0001) %MON forcing_empmr_del2           =   8.7123192761432E-06
(PID.TID 0000.0001) %MON forcing_fu_max               =   1.1863871812820E+00
(PID.TID 0000.0001) %MON forcing_fu_min               =  -1.3435791730881E+00
(PID.TID 0000.0001) %MON forcing_fu_mean              =   1.3700158459060E-02
(PID.TID 0000.0001) %MON forcing_fu_sd                =   1.1759213817071E-01
(PID.TID 0000.0001) %MON forcing_fu_del2              =   1.6625279816981E-04
(PID.TID 0000.0001) %MON forcing_fv_max               =   8.5317716002464E-01
(PID.TID 0000.0001) %MON forcing_fv_min               =  -7.4581113457680E-01
(PID.TID 0000.0001) %MON forcing_fv_mean              =  -6.0986356470006E-03
(PID.TID 0000.0001) %MON forcing_fv_sd                =   1.1463306703639E-01
(PID.TID 0000.0001) %MON forcing_fv_del2              =   1.3249860347958E-04
(PID.TID 0000.0001) %MON trAdv_CFL_u_max              =   8.3458834275994E-02
(PID.TID 0000.0001) %MON trAdv_CFL_v_max              =   9.7338532441086E-02
(PID.TID 0000.0001) %MON trAdv_CFL_w_max              =   3.5266126247248E-01
(PID.TID 0000.0001) %MON advcfl_uvel_max              =   8.4098630213249E-02
(PID.TID 0000.0001) %MON advcfl_vvel_max              =   9.3835648185191E-02
(PID.TID 0000.0001) %MON advcfl_wvel_max              =   3.5429717950785E-01
(PID.TID 0000.0001) %MON advcfl_W_hf_max              =   3.5573014108362E-01
(PID.TID 0000.0001) %MON pe_b_mean                    =   7.1529911422243E-04
(PID.TID 0000.0001) %MON ke_max                       =   5.3467288089336E-01
(PID.TID 0000.0001) %MON ke_mean                      =   5.1647174242492E-04
(PID.TID 0000.0001) %MON ke_vol                       =   1.3349973326485E+18
(PID.TID 0000.0001) %MON vort_r_min                   =  -4.2228199774011E-05
(PID.TID 0000.0001) %MON vort_r_max                   =   3.8569703984667E-05
(PID.TID 0000.0001) %MON vort_a_mean                  =  -1.9727864647440E-05
(PID.TID 0000.0001) %MON vort_a_sd                    =   7.4543457412298E-05
(PID.TID 0000.0001) %MON vort_p_mean                  =  -2.1760535714105E-05
(PID.TID 0000.0001) %MON vort_p_sd                    =   9.7239304684946E-05
(PID.TID 0000.0001) %MON surfExpan_theta_mean         =  -2.2616740177507E-06
(PID.TID 0000.0001) %MON surfExpan_salt_mean          =  -2.9448880249868E-07
(PID.TID 0000.0001) // =======================================================
(PID.TID 0000.0001) // End MONITOR dynamic field statistics
(PID.TID 0000.0001) // =======================================================
 cg2d: Sum(rhs),rhsMax =   2.76238730284270E+00  6.33980847320567E-02
 cg2d: Sum(rhs),rhsMax =   2.57804092391994E+00  6.17899653782233E-02
(PID.TID 0000.0001)      cg2d_init_res =   6.02697219127027E-01
(PID.TID 0000.0001)      cg2d_iters(min,last) =      -1     121
(PID.TID 0000.0001)      cg2d_last_res =   6.58272599970490E-06
(PID.TID 0000.0001) // =======================================================
(PID.TID 0000.0001) // Begin MONITOR dynamic field statistics
(PID.TID 0000.0001) // =======================================================
(PID.TID 0000.0001) %MON time_tsnumber                =                     4
(PID.TID 0000.0001) %MON time_secondsf                =   1.4400000000000E+04
(PID.TID 0000.0001) %MON dynstat_eta_max              =   1.2285059792142E+00
(PID.TID 0000.0001) %MON dynstat_eta_min              =  -4.2870526682721E+00
(PID.TID 0000.0001) %MON dynstat_eta_mean             =  -1.3048266902396E-03
(PID.TID 0000.0001) %MON dynstat_eta_sd               =   7.2743410319621E-01
(PID.TID 0000.0001) %MON dynstat_eta_del2             =   9.6283488951856E-05
(PID.TID 0000.0001) %MON dynstat_uvel_max             =   9.6732907914739E-01
(PID.TID 0000.0001) %MON dynstat_uvel_min             =  -1.3408596416829E+00
(PID.TID 0000.0001) %MON dynstat_uvel_mean            =   1.9752562643295E-03
(PID.TID 0000.0001) %MON dynstat_uvel_sd              =   2.2374912138886E-02
(PID.TID 0000.0001) %MON dynstat_uvel_del2            =   1.8076757615737E-05
(PID.TID 0000.0001) %MON dynstat_vvel_max             =   1.0982878669659E+00
(PID.TID 0000.0001) %MON dynstat_vvel_min             =  -1.1162310689889E+00
(PID.TID 0000.0001) %MON dynstat_vvel_mean            =   1.2206925990554E-03
(PID.TID 0000.0001) %MON dynstat_vvel_sd              =   2.4194227362535E-02
(PID.TID 0000.0001) %MON dynstat_vvel_del2            =   1.9344682717480E-05
(PID.TID 0000.0001) %MON dynstat_wvel_max             =   2.4546141286477E-03
(PID.TID 0000.0001) %MON dynstat_wvel_min             =  -2.2520598352566E-03
(PID.TID 0000.0001) %MON dynstat_wvel_mean            =  -1.0092072722913E-08
(PID.TID 0000.0001) %MON dynstat_wvel_sd              =   3.4456066177394E-05
(PID.TID 0000.0001) %MON dynstat_wvel_del2            =   4.5608980550541E-08
(PID.TID 0000.0001) %MON dynstat_theta_max            =   3.2664806847383E+01
(PID.TID 0000.0001) %MON dynstat_theta_min            =  -2.0421636491519E+00
(PID.TID 0000.0001) %MON dynstat_theta_mean           =   3.5905819349090E+00
(PID.TID 0000.0001) %MON dynstat_theta_sd             =   4.4365308467785E+00
(PID.TID 0000.0001) %MON dynstat_theta_del2           =   1.1000209298698E-04
(PID.TID 0000.0001) %MON dynstat_salt_max             =   4.0711523460514E+01
(PID.TID 0000.0001) %MON dynstat_salt_min             =   2.2975592636333E+01
(PID.TID 0000.0001) %MON dynstat_salt_mean            =   3.4726170815455E+01
(PID.TID 0000.0001) %MON dynstat_salt_sd              =   3.7533032496093E-01
(PID.TID 0000.0001) %MON dynstat_salt_del2            =   2.7108574832387E-05
(PID.TID 0000.0001) %MON dynstat_sst_max              =   3.2664806847383E+01
(PID.TID 0000.0001) %MON dynstat_sst_min              =  -1.9576343691751E+00
(PID.TID 0000.0001) %MON dynstat_sst_mean             =   1.8493433129380E+01
(PID.TID 0000.0001) %MON dynstat_sst_sd               =   1.0100488720001E+01
(PID.TID 0000.0001) %MON dynstat_sst_del2             =   8.8868241630697E-04
(PID.TID 0000.0001) %MON dynstat_sss_max              =   3.9640402168138E+01
(PID.TID 0000.0001) %MON dynstat_sss_min              =   2.2975592636333E+01
(PID.TID 0000.0001) %MON dynstat_sss_mean             =   3.4742320095738E+01
(PID.TID 0000.0001) %MON dynstat_sss_sd               =   1.0670132367634E+00
(PID.TID 0000.0001) %MON dynstat_sss_del2             =   3.9931410776693E-04
(PID.TID 0000.0001) %MON forcing_qnet_max             =   3.1730168457031E+03
(PID.TID 0000.0001) %MON forcing_qnet_min             =  -2.2227065429688E+03
(PID.TID 0000.0001) %MON forcing_qnet_mean            =   1.0625480513259E+01
(PID.TID 0000.0001) %MON forcing_qnet_sd              =   1.7217693438374E+02
(PID.TID 0000.0001) %MON forcing_qnet_del2            =   7.3838858126076E-01
(PID.TID 0000.0001) %MON forcing_qsw_max              =   0.0000000000000E+00
(PID.TID 0000.0001) %MON forcing_qsw_min              =   0.0000000000000E+00
(PID.TID 0000.0001) %MON forcing_qsw_mean             =   0.0000000000000E+00
(PID.TID 0000.0001) %MON forcing_qsw_sd               =   0.0000000000000E+00
(PID.TID 0000.0001) %MON forcing_qsw_del2             =   0.0000000000000E+00
(PID.TID 0000.0001) %MON forcing_empmr_max            =   3.1460232567042E-03
(PID.TID 0000.0001) %MON forcing_empmr_min            =  -1.4149461686611E-01
(PID.TID 0000.0001) %MON forcing_empmr_mean           =  -2.6669232025487E-05
(PID.TID 0000.0001) %MON forcing_empmr_sd             =   5.6133275900009E-04
(PID.TID 0000.0001) %MON forcing_empmr_del2           =   3.4057393704865E-06
(PID.TID 0000.0001) %MON forcing_fu_max               =   1.2521483302116E+00
(PID.TID 0000.0001) %MON forcing_fu_min               =  -1.2886297702789E+00
(PID.TID 0000.0001) %MON forcing_fu_mean              =   1.2957468786683E-02
(PID.TID 0000.0001) %MON forcing_fu_sd                =   1.1497602103903E-01
(PID.TID 0000.0001) %MON forcing_fu_del2              =   1.6650997815637E-04
(PID.TID 0000.0001) %MON forcing_fv_max               =   8.3479881286621E-01
(PID.TID 0000.0001) %MON forcing_fv_min               =  -7.4209502372679E-01
(PID.TID 0000.0001) %MON forcing_fv_mean              =  -5.7071402164155E-03
(PID.TID 0000.0001) %MON forcing_fv_sd                =   1.1405234070728E-01
(PID.TID 0000.0001) %MON forcing_fv_del2              =   1.3581452230863E-04
(PID.TID 0000.0001) %MON trAdv_CFL_u_max              =   1.1067373977970E-01
(PID.TID 0000.0001) %MON trAdv_CFL_v_max              =   9.8478409987714E-02
(PID.TID 0000.0001) %MON trAdv_CFL_w_max              =   3.0976291074997E-01
(PID.TID 0000.0001) %MON advcfl_uvel_max              =   1.0458195674333E-01
(PID.TID 0000.0001) %MON advcfl_vvel_max              =   9.7846224989476E-02
(PID.TID 0000.0001) %MON advcfl_wvel_max              =   3.1158324254790E-01
(PID.TID 0000.0001) %MON advcfl_W_hf_max              =   3.1283167387299E-01
(PID.TID 0000.0001) %MON pe_b_mean                    =   6.9606076334567E-04
(PID.TID 0000.0001) %MON ke_max                       =   8.3025173893161E-01
(PID.TID 0000.0001) %MON ke_mean                      =   5.2626322473779E-04
(PID.TID 0000.0001) %MON ke_vol                       =   1.3349973763893E+18
(PID.TID 0000.0001) %MON vort_r_min                   =  -5.5796010687022E-05
(PID.TID 0000.0001) %MON vort_r_max                   =   4.2295315142737E-05
(PID.TID 0000.0001) %MON vort_a_mean                  =  -1.9727864647440E-05
(PID.TID 0000.0001) %MON vort_a_sd                    =   7.4543472992680E-05
(PID.TID 0000.0001) %MON vort_p_mean                  =  -2.1760537047443E-05
(PID.TID 0000.0001) %MON vort_p_sd                    =   9.7240619056240E-05
(PID.TID 0000.0001) %MON surfExpan_theta_mean         =  -3.0001421513169E-06
(PID.TID 0000.0001) %MON surfExpan_salt_mean          =  -2.2617210839157E-07
(PID.TID 0000.0001) // =======================================================
(PID.TID 0000.0001) // End MONITOR dynamic field statistics
(PID.TID 0000.0001) // =======================================================
 cg2d: Sum(rhs),rhsMax =   2.44780926085886E+00  6.05897686599264E-02
 cg2d: Sum(rhs),rhsMax =   2.34429573877047E+00  5.99453441529047E-02
(PID.TID 0000.0001)      cg2d_init_res =   3.70120199770879E-01
(PID.TID 0000.0001)      cg2d_iters(min,last) =      -1     115
(PID.TID 0000.0001)      cg2d_last_res =   7.05502621273659E-06
(PID.TID 0000.0001) // =======================================================
(PID.TID 0000.0001) // Begin MONITOR dynamic field statistics
(PID.TID 0000.0001) // =======================================================
(PID.TID 0000.0001) %MON time_tsnumber                =                     6
(PID.TID 0000.0001) %MON time_secondsf                =   2.1600000000000E+04
(PID.TID 0000.0001) %MON dynstat_eta_max              =   1.1395997075743E+00
(PID.TID 0000.0001) %MON dynstat_eta_min              =  -4.0666291399069E+00
(PID.TID 0000.0001) %MON dynstat_eta_mean             =  -1.1865209824179E-03
(PID.TID 0000.0001) %MON dynstat_eta_sd               =   7.2110962766778E-01
(PID.TID 0000.0001) %MON dynstat_eta_del2             =   9.5182985163705E-05
(PID.TID 0000.0001) %MON dynstat_uvel_max             =   1.0824716597351E+00
(PID.TID 0000.0001) %MON dynstat_uvel_min             =  -1.5265195487590E+00
(PID.TID 0000.0001) %MON dynstat_uvel_mean            =   1.9161834450489E-03
(PID.TID 0000.0001) %MON dynstat_uvel_sd              =   2.2593547538982E-02
(PID.TID 0000.0001) %MON dynstat_uvel_del2            =   1.7344925611704E-05
(PID.TID 0000.0001) %MON dynstat_vvel_max             =   1.2395738174998E+00
(PID.TID 0000.0001) %MON dynstat_vvel_min             =  -1.1611091180662E+00
(PID.TID 0000.0001) %MON dynstat_vvel_mean            =   1.2564520810422E-03
(PID.TID 0000.0001) %MON dynstat_vvel_sd              =   2.4339020917969E-02
(PID.TID 0000.0001) %MON dynstat_vvel_del2            =   1.8649317979156E-05
(PID.TID 0000.0001) %MON dynstat_wvel_max             =   2.6706967655135E-03
(PID.TID 0000.0001) %MON dynstat_wvel_min             =  -3.3391908164219E-03
(PID.TID 0000.0001) %MON dynstat_wvel_mean            =   1.8118434717316E-08
(PID.TID 0000.0001) %MON dynstat_wvel_sd              =   3.4511073949563E-05
(PID.TID 0000.0001) %MON dynstat_wvel_del2            =   4.7210984291582E-08
(PID.TID 0000.0001) %MON dynstat_theta_max            =   3.2663768869703E+01
(PID.TID 0000.0001) %MON dynstat_theta_min            =  -2.0422091921017E+00
(PID.TID 0000.0001) %MON dynstat_theta_mean           =   3.5906041021239E+00
(PID.TID 0000.0001) %MON dynstat_theta_sd             =   4.4365422483237E+00
(PID.TID 0000.0001) %MON dynstat_theta_del2           =   1.1006538054105E-04
(PID.TID 0000.0001) %MON dynstat_salt_max             =   4.0711520347712E+01
(PID.TID 0000.0001) %MON dynstat_salt_min             =   2.2929859726409E+01
(PID.TID 0000.0001) %MON dynstat_salt_mean            =   3.4726087864848E+01
(PID.TID 0000.0001) %MON dynstat_salt_sd              =   3.7511159207009E-01
(PID.TID 0000.0001) %MON dynstat_salt_del2            =   2.6535332835699E-05
(PID.TID 0000.0001) %MON dynstat_sst_max              =   3.2663768869703E+01
(PID.TID 0000.0001) %MON dynstat_sst_min              =  -1.9561090415610E+00
(PID.TID 0000.0001) %MON dynstat_sst_mean             =   1.8489415279416E+01
(PID.TID 0000.0001) %MON dynstat_sst_sd               =   1.0106438346431E+01
(PID.TID 0000.0001) %MON dynstat_sst_del2             =   8.8601264641948E-04
(PID.TID 0000.0001) %MON dynstat_sss_max              =   3.9589761527241E+01
(PID.TID 0000.0001) %MON dynstat_sss_min              =   2.2929859726409E+01
(PID.TID 0000.0001) %MON dynstat_sss_mean             =   3.4715297178877E+01
(PID.TID 0000.0001) %MON dynstat_sss_sd               =   1.0481351478819E+00
(PID.TID 0000.0001) %MON dynstat_sss_del2             =   4.0742927216059E-04
(PID.TID 0000.0001) %MON forcing_qnet_max             =   2.0005910332760E+03
(PID.TID 0000.0001) %MON forcing_qnet_min             =  -2.5757480468750E+03
(PID.TID 0000.0001) %MON forcing_qnet_mean            =  -9.3579231706415E+01
(PID.TID 0000.0001) %MON forcing_qnet_sd              =   2.2885131977775E+02
(PID.TID 0000.0001) %MON forcing_qnet_del2            =   1.2794773289991E+00
(PID.TID 0000.0001) %MON forcing_qsw_max              =   0.0000000000000E+00
(PID.TID 0000.0001) %MON forcing_qsw_min              =  -4.3851880559819E+02
(PID.TID 0000.0001) %MON forcing_qsw_mean             =  -9.0091125777271E+01
(PID.TID 0000.0001) %MON forcing_qsw_sd               =   1.2186800642331E+02
(PID.TID 0000.0001) %MON forcing_qsw_del2             =   2.0218873391341E-01
(PID.TID 0000.0001) %MON forcing_empmr_max            =   3.1487359665334E-03
(PID.TID 0000.0001) %MON forcing_empmr_min            =  -1.0163416713476E-01
(PID.TID 0000.0001) %MON forcing_empmr_mean           =  -1.4975212176507E-05
(PID.TID 0000.0001) %MON forcing_empmr_sd             =   4.1348438813087E-04
(PID.TID 0000.0001) %MON forcing_empmr_del2           =   2.5336090857212E-06
(PID.TID 0000.0001) %MON forcing_fu_max               =   1.3156369924545E+00
(PID.TID 0000.0001) %MON forcing_fu_min               =  -1.3049401640892E+00
(PID.TID 0000.0001) %MON forcing_fu_mean              =   1.3226725472453E-02
(PID.TID 0000.0001) %MON forcing_fu_sd                =   1.1712539155072E-01
(PID.TID 0000.0001) %MON forcing_fu_del2              =   1.7205439672415E-04
(PID.TID 0000.0001) %MON forcing_fv_max               =   8.8287562131882E-01
(PID.TID 0000.0001) %MON forcing_fv_min               =  -7.9134878516197E-01
(PID.TID 0000.0001) %MON forcing_fv_mean              =  -5.5772652605762E-03
(PID.TID 0000.0001) %MON forcing_fv_sd                =   1.1478077345473E-01
(PID.TID 0000.0001) %MON forcing_fv_del2              =   1.3779316262035E-04
(PID.TID 0000.0001) %MON trAdv_CFL_u_max              =   1.1471381680055E-01
(PID.TID 0000.0001) %MON trAdv_CFL_v_max              =   9.3756544644588E-02
(PID.TID 0000.0001) %MON trAdv_CFL_w_max              =   3.1266120570203E-01
(PID.TID 0000.0001) %MON advcfl_uvel_max              =   1.0805099918813E-01
(PID.TID 0000.0001) %MON advcfl_vvel_max              =   1.0178013061987E-01
(PID.TID 0000.0001) %MON advcfl_wvel_max              =   3.1179848944001E-01
(PID.TID 0000.0001) %MON advcfl_W_hf_max              =   3.2899899953892E-01
(PID.TID 0000.0001) %MON pe_b_mean                    =   6.8400958279928E-04
(PID.TID 0000.0001) %MON ke_max                       =   1.0448395747161E+00
(PID.TID 0000.0001) %MON ke_mean                      =   5.3432407760261E-04
(PID.TID 0000.0001) %MON ke_vol                       =   1.3349974333915E+18
(PID.TID 0000.0001) %MON vort_r_min                   =  -5.7836511996587E-05
(PID.TID 0000.0001) %MON vort_r_max                   =   4.8146013142572E-05
(PID.TID 0000.0001) %MON vort_a_mean                  =  -1.9727864647440E-05
(PID.TID 0000.0001) %MON vort_a_sd                    =   7.4543488549116E-05
(PID.TID 0000.0001) %MON vort_p_mean                  =  -2.1760536423668E-05
(PID.TID 0000.0001) %MON vort_p_sd                    =   9.7240958542010E-05
(PID.TID 0000.0001) %MON surfExpan_theta_mean         =  -2.5032027026975E-06
(PID.TID 0000.0001) %MON surfExpan_salt_mean          =  -3.9273438512018E-07
(PID.TID 0000.0001) // =======================================================
(PID.TID 0000.0001) // End MONITOR dynamic field statistics
(PID.TID 0000.0001) // =======================================================
 cg2d: Sum(rhs),rhsMax =   2.25333549801838E+00  5.89662506825175E-02
 cg2d: Sum(rhs),rhsMax =   2.17419160358278E+00  5.80628560423800E-02
(PID.TID 0000.0001)      cg2d_init_res =   3.04486840325208E-01
(PID.TID 0000.0001)      cg2d_iters(min,last) =      -1     115
(PID.TID 0000.0001)      cg2d_last_res =   6.34000186010243E-06
(PID.TID 0000.0001) // =======================================================
(PID.TID 0000.0001) // Begin MONITOR dynamic field statistics
(PID.TID 0000.0001) // =======================================================
(PID.TID 0000.0001) %MON time_tsnumber                =                     8
(PID.TID 0000.0001) %MON time_secondsf                =   2.8800000000000E+04
(PID.TID 0000.0001) %MON dynstat_eta_max              =   1.1498271080705E+00
(PID.TID 0000.0001) %MON dynstat_eta_min              =  -4.0025844424506E+00
(PID.TID 0000.0001) %MON dynstat_eta_mean             =  -1.1004259892572E-03
(PID.TID 0000.0001) %MON dynstat_eta_sd               =   7.1812428880932E-01
(PID.TID 0000.0001) %MON dynstat_eta_del2             =   9.3474202921002E-05
(PID.TID 0000.0001) %MON dynstat_uvel_max             =   1.1534254115711E+00
(PID.TID 0000.0001) %MON dynstat_uvel_min             =  -1.5908018946499E+00
(PID.TID 0000.0001) %MON dynstat_uvel_mean            =   1.8354701692834E-03
(PID.TID 0000.0001) %MON dynstat_uvel_sd              =   2.2741600089930E-02
(PID.TID 0000.0001) %MON dynstat_uvel_del2            =   1.6998076967231E-05
(PID.TID 0000.0001) %MON dynstat_vvel_max             =   1.2615277079910E+00
(PID.TID 0000.0001) %MON dynstat_vvel_min             =  -1.0179550063859E+00
(PID.TID 0000.0001) %MON dynstat_vvel_mean            =   1.3548304134072E-03
(PID.TID 0000.0001) %MON dynstat_vvel_sd              =   2.4335257075936E-02
(PID.TID 0000.0001) %MON dynstat_vvel_del2            =   1.8242962758545E-05
(PID.TID 0000.0001) %MON dynstat_wvel_max             =   3.0567088255995E-03
(PID.TID 0000.0001) %MON dynstat_wvel_min             =  -4.0124245538222E-03
(PID.TID 0000.0001) %MON dynstat_wvel_mean            =   5.7057317789090E-08
(PID.TID 0000.0001) %MON dynstat_wvel_sd              =   3.5796889022494E-05
(PID.TID 0000.0001) %MON dynstat_wvel_del2            =   5.2039847847872E-08
(PID.TID 0000.0001) %MON dynstat_theta_max            =   3.2661410017394E+01
(PID.TID 0000.0001) %MON dynstat_theta_min            =  -2.0422682908986E+00
(PID.TID 0000.0001) %MON dynstat_theta_mean           =   3.5906261723480E+00
(PID.TID 0000.0001) %MON dynstat_theta_sd             =   4.4366270058938E+00
(PID.TID 0000.0001) %MON dynstat_theta_del2           =   1.0957358978749E-04
(PID.TID 0000.0001) %MON dynstat_salt_max             =   4.0711518885102E+01
(PID.TID 0000.0001) %MON dynstat_salt_min             =   2.2882541700826E+01
(PID.TID 0000.0001) %MON dynstat_salt_mean            =   3.4726018744864E+01
(PID.TID 0000.0001) %MON dynstat_salt_sd              =   3.7493556410551E-01
(PID.TID 0000.0001) %MON dynstat_salt_del2            =   2.6447037941918E-05
(PID.TID 0000.0001) %MON dynstat_sst_max              =   3.2661410017394E+01
(PID.TID 0000.0001) %MON dynstat_sst_min              =  -1.9545494289548E+00
(PID.TID 0000.0001) %MON dynstat_sst_mean             =   1.8491377628802E+01
(PID.TID 0000.0001) %MON dynstat_sst_sd               =   1.0111145657936E+01
(PID.TID 0000.0001) %MON dynstat_sst_del2             =   8.8332637506633E-04
(PID.TID 0000.0001) %MON dynstat_sss_max              =   3.9541334249702E+01
(PID.TID 0000.0001) %MON dynstat_sss_min              =   2.2882541700826E+01
(PID.TID 0000.0001) %MON dynstat_sss_mean             =   3.4696756375316E+01
(PID.TID 0000.0001) %MON dynstat_sss_sd               =   1.0322465947706E+00
(PID.TID 0000.0001) %MON dynstat_sss_del2             =   4.1639813690988E-04
(PID.TID 0000.0001) %MON forcing_qnet_max             =   1.1788859083076E+03
(PID.TID 0000.0001) %MON forcing_qnet_min             =  -1.2551733509836E+03
(PID.TID 0000.0001) %MON forcing_qnet_mean            =  -4.5308718420727E+01
(PID.TID 0000.0001) %MON forcing_qnet_sd              =   1.7367822472851E+02
(PID.TID 0000.0001) %MON forcing_qnet_del2            =   6.7810074179435E-01
(PID.TID 0000.0001) %MON forcing_qsw_max              =   0.0000000000000E+00
(PID.TID 0000.0001) %MON forcing_qsw_min              =  -4.4034338298002E+02
(PID.TID 0000.0001) %MON forcing_qsw_mean             =  -9.0116764488014E+01
(PID.TID 0000.0001) %MON forcing_qsw_sd               =   1.2228574309836E+02
(PID.TID 0000.0001) %MON forcing_qsw_del2             =   2.0251446223639E-01
(PID.TID 0000.0001) %MON forcing_empmr_max            =   3.1708441674709E-03
(PID.TID 0000.0001) %MON forcing_empmr_min            =  -8.4257379174232E-02
(PID.TID 0000.0001) %MON forcing_empmr_mean           =  -1.1449679111843E-05
(PID.TID 0000.0001) %MON forcing_empmr_sd             =   3.5681543291683E-04
(PID.TID 0000.0001) %MON forcing_empmr_del2           =   2.2681437608343E-06
(PID.TID 0000.0001) %MON forcing_fu_max               =   1.3541157245636E+00
(PID.TID 0000.0001) %MON forcing_fu_min               =  -1.3328353166580E+00
(PID.TID 0000.0001) %MON forcing_fu_mean              =   1.3369608869012E-02
(PID.TID 0000.0001) %MON forcing_fu_sd                =   1.1847364182227E-01
(PID.TID 0000.0001) %MON forcing_fu_del2              =   1.7408380216956E-04
(PID.TID 0000.0001) %MON forcing_fv_max               =   8.8634121417999E-01
(PID.TID 0000.0001) %MON forcing_fv_min               =  -8.1994223594665E-01
(PID.TID 0000.0001) %MON forcing_fv_mean              =  -5.4512988063477E-03
(PID.TID 0000.0001) %MON forcing_fv_sd                =   1.1474413317311E-01
(PID.TID 0000.0001) %MON forcing_fv_del2              =   1.3823170597583E-04
(PID.TID 0000.0001) %MON trAdv_CFL_u_max              =   1.0062846422723E-01
(PID.TID 0000.0001) %MON trAdv_CFL_v_max              =   9.3071729489074E-02
(PID.TID 0000.0001) %MON trAdv_CFL_w_max              =   3.2252293854896E-01
(PID.TID 0000.0001) %MON advcfl_uvel_max              =   1.0527873143863E-01
(PID.TID 0000.0001) %MON advcfl_vvel_max              =   8.9572429895511E-02
(PID.TID 0000.0001) %MON advcfl_wvel_max              =   3.2278677498367E-01
(PID.TID 0000.0001) %MON advcfl_W_hf_max              =   3.3976518605836E-01
(PID.TID 0000.0001) %MON pe_b_mean                    =   6.7835754941286E-04
(PID.TID 0000.0001) %MON ke_max                       =   1.1305803986771E+00
(PID.TID 0000.0001) %MON ke_mean                      =   5.3744958689239E-04
(PID.TID 0000.0001) %MON ke_vol                       =   1.3349974686305E+18
(PID.TID 0000.0001) %MON vort_r_min                   =  -5.0494977134589E-05
(PID.TID 0000.0001) %MON vort_r_max                   =   4.6073900149167E-05
(PID.TID 0000.0001) %MON vort_a_mean                  =  -1.9727864647440E-05
(PID.TID 0000.0001) %MON vort_a_sd                    =   7.4543497657356E-05
(PID.TID 0000.0001) %MON vort_p_mean                  =  -2.1760536009140E-05
(PID.TID 0000.0001) %MON vort_p_sd                    =   9.7241456519859E-05
(PID.TID 0000.0001) %MON surfExpan_theta_mean         =  -1.9762960921502E-06
(PID.TID 0000.0001) %MON surfExpan_salt_mean          =  -3.4295247871235E-07
(PID.TID 0000.0001) // =======================================================
(PID.TID 0000.0001) // End MONITOR dynamic field statistics
(PID.TID 0000.0001) // =======================================================
 cg2d: Sum(rhs),rhsMax =   2.10466646471402E+00  5.76237741182773E-02
 cg2d: Sum(rhs),rhsMax =   2.03909123571104E+00  5.73529705105031E-02
(PID.TID 0000.0001)      cg2d_init_res =   2.80703461651194E-01
(PID.TID 0000.0001)      cg2d_iters(min,last) =      -1     114
(PID.TID 0000.0001)      cg2d_last_res =   6.42016119437887E-06
(PID.TID 0000.0001) // =======================================================
(PID.TID 0000.0001) // Begin MONITOR dynamic field statistics
(PID.TID 0000.0001) // =======================================================
(PID.TID 0000.0001) %MON time_tsnumber                =                    10
(PID.TID 0000.0001) %MON time_secondsf                =   3.6000000000000E+04
(PID.TID 0000.0001) %MON dynstat_eta_max              =   1.1716067962961E+00
(PID.TID 0000.0001) %MON dynstat_eta_min              =  -3.7980780934927E+00
(PID.TID 0000.0001) %MON dynstat_eta_mean             =  -1.0320474913733E-03
(PID.TID 0000.0001) %MON dynstat_eta_sd               =   7.1543894289517E-01
(PID.TID 0000.0001) %MON dynstat_eta_del2             =   9.2345090911519E-05
(PID.TID 0000.0001) %MON dynstat_uvel_max             =   9.8636156141540E-01
(PID.TID 0000.0001) %MON dynstat_uvel_min             =  -1.5818157099425E+00
(PID.TID 0000.0001) %MON dynstat_uvel_mean            =   1.7918104174841E-03
(PID.TID 0000.0001) %MON dynstat_uvel_sd              =   2.2803113193603E-02
(PID.TID 0000.0001) %MON dynstat_uvel_del2            =   1.6838997427936E-05
(PID.TID 0000.0001) %MON dynstat_vvel_max             =   1.3341714266102E+00
(PID.TID 0000.0001) %MON dynstat_vvel_min             =  -9.3595552437180E-01
(PID.TID 0000.0001) %MON dynstat_vvel_mean            =   1.4466562328322E-03
(PID.TID 0000.0001) %MON dynstat_vvel_sd              =   2.4274296121662E-02
(PID.TID 0000.0001) %MON dynstat_vvel_del2            =   1.8060696709171E-05
(PID.TID 0000.0001) %MON dynstat_wvel_max             =   3.2126792833928E-03
(PID.TID 0000.0001) %MON dynstat_wvel_min             =  -4.0946923080155E-03
(PID.TID 0000.0001) %MON dynstat_wvel_mean            =   5.9801992575364E-08
(PID.TID 0000.0001) %MON dynstat_wvel_sd              =   3.6513338607104E-05
(PID.TID 0000.0001) %MON dynstat_wvel_del2            =   5.5778382694502E-08
(PID.TID 0000.0001) %MON dynstat_theta_max            =   3.2657996693124E+01
(PID.TID 0000.0001) %MON dynstat_theta_min            =  -2.0423256727461E+00
(PID.TID 0000.0001) %MON dynstat_theta_mean           =   3.5906447746597E+00
(PID.TID 0000.0001) %MON dynstat_theta_sd             =   4.4367079225991E+00
(PID.TID 0000.0001) %MON dynstat_theta_del2           =   1.0910804497093E-04
(PID.TID 0000.0001) %MON dynstat_salt_max             =   4.0711518662200E+01
(PID.TID 0000.0001) %MON dynstat_salt_min             =   2.2835945059653E+01
(PID.TID 0000.0001) %MON dynstat_salt_mean            =   3.4725961657670E+01
(PID.TID 0000.0001) %MON dynstat_salt_sd              =   3.7478505465024E-01
(PID.TID 0000.0001) %MON dynstat_salt_del2            =   2.6370408890151E-05
(PID.TID 0000.0001) %MON dynstat_sst_max              =   3.2657996693124E+01
(PID.TID 0000.0001) %MON dynstat_sst_min              =  -1.9527902205350E+00
(PID.TID 0000.0001) %MON dynstat_sst_mean             =   1.8492757190624E+01
(PID.TID 0000.0001) %MON dynstat_sst_sd               =   1.0115310925791E+01
(PID.TID 0000.0001) %MON dynstat_sst_del2             =   8.8135996576333E-04
(PID.TID 0000.0001) %MON dynstat_sss_max              =   3.9495084899582E+01
(PID.TID 0000.0001) %MON dynstat_sss_min              =   2.2835945059653E+01
(PID.TID 0000.0001) %MON dynstat_sss_mean             =   3.4683308912655E+01
(PID.TID 0000.0001) %MON dynstat_sss_sd               =   1.0197977770266E+00
(PID.TID 0000.0001) %MON dynstat_sss_del2             =   4.2306740565149E-04
(PID.TID 0000.0001) %MON forcing_qnet_max             =   9.9062420654297E+02
(PID.TID 0000.0001) %MON forcing_qnet_min             =  -1.2162892963103E+03
(PID.TID 0000.0001) %MON forcing_qnet_mean            =  -4.1098950253646E+01
(PID.TID 0000.0001) %MON forcing_qnet_sd              =   1.7576915422844E+02
(PID.TID 0000.0001) %MON forcing_qnet_del2            =   5.2205576193275E-01
(PID.TID 0000.0001) %MON forcing_qsw_max              =   0.0000000000000E+00
(PID.TID 0000.0001) %MON forcing_qsw_min              =  -4.3639631171661E+02
(PID.TID 0000.0001) %MON forcing_qsw_mean             =  -9.0850211142083E+01
(PID.TID 0000.0001) %MON forcing_qsw_sd               =   1.2399659528287E+02
(PID.TID 0000.0001) %MON forcing_qsw_del2             =   2.0232775988347E-01
(PID.TID 0000.0001) %MON forcing_empmr_max            =   3.1825087498873E-03
(PID.TID 0000.0001) %MON forcing_empmr_min            =  -7.3016554117203E-02
(PID.TID 0000.0001) %MON forcing_empmr_mean           =  -9.4867119583708E-06
(PID.TID 0000.0001) %MON forcing_empmr_sd             =   3.1797330114005E-04
(PID.TID 0000.0001) %MON forcing_empmr_del2           =   2.0886158083355E-06
(PID.TID 0000.0001) %MON forcing_fu_max               =   1.3415947556496E+00
(PID.TID 0000.0001) %MON forcing_fu_min               =  -1.3052327036858E+00
(PID.TID 0000.0001) %MON forcing_fu_mean              =   1.3437596370002E-02
(PID.TID 0000.0001) %MON forcing_fu_sd                =   1.1892997195950E-01
(PID.TID 0000.0001) %MON forcing_fu_del2              =   1.7343263785076E-04
(PID.TID 0000.0001) %MON forcing_fv_max               =   8.7615758180618E-01
(PID.TID 0000.0001) %MON forcing_fv_min               =  -8.4475362300873E-01
(PID.TID 0000.0001) %MON forcing_fv_mean              =  -5.2012243811852E-03
(PID.TID 0000.0001) %MON forcing_fv_sd                =   1.1400477684711E-01
(PID.TID 0000.0001) %MON forcing_fv_del2              =   1.3734054819509E-04
(PID.TID 0000.0001) %MON trAdv_CFL_u_max              =   1.0012044665057E-01
(PID.TID 0000.0001) %MON trAdv_CFL_v_max              =   9.8063333460992E-02
(PID.TID 0000.0001) %MON trAdv_CFL_w_max              =   3.0119816943580E-01
(PID.TID 0000.0001) %MON advcfl_uvel_max              =   1.0468402877348E-01
(PID.TID 0000.0001) %MON advcfl_vvel_max              =   9.4730996559184E-02
(PID.TID 0000.0001) %MON advcfl_wvel_max              =   3.0118078927174E-01
(PID.TID 0000.0001) %MON advcfl_W_hf_max              =   3.1656150607378E-01
(PID.TID 0000.0001) %MON pe_b_mean                    =   6.7329355617460E-04
(PID.TID 0000.0001) %MON ke_max                       =   1.1084268524856E+00
(PID.TID 0000.0001) %MON ke_mean                      =   5.3741892846713E-04
(PID.TID 0000.0001) %MON ke_vol                       =   1.3349974955696E+18
(PID.TID 0000.0001) %MON vort_r_min                   =  -4.4283475768842E-05
(PID.TID 0000.0001) %MON vort_r_max                   =   4.5180025287460E-05
(PID.TID 0000.0001) %MON vort_a_mean                  =  -1.9727864647440E-05
(PID.TID 0000.0001) %MON vort_a_sd                    =   7.4543508042477E-05
(PID.TID 0000.0001) %MON vort_p_mean                  =  -2.1760535922419E-05
(PID.TID 0000.0001) %MON vort_p_sd                    =   9.7241698397860E-05
(PID.TID 0000.0001) %MON surfExpan_theta_mean         =  -1.9063308037040E-06
(PID.TID 0000.0001) %MON surfExpan_salt_mean          =  -2.3421565365259E-07
(PID.TID 0000.0001) // =======================================================
(PID.TID 0000.0001) // End MONITOR dynamic field statistics
(PID.TID 0000.0001) // =======================================================
 cg2d: Sum(rhs),rhsMax =   1.97593788126763E+00  5.71323127261167E-02
 cg2d: Sum(rhs),rhsMax =   1.91567207393948E+00  5.68554798594629E-02
(PID.TID 0000.0001)      cg2d_init_res =   2.73454501027735E-01
(PID.TID 0000.0001)      cg2d_iters(min,last) =      -1     106
(PID.TID 0000.0001)      cg2d_last_res =   6.40202463611833E-06
(PID.TID 0000.0001) // =======================================================
(PID.TID 0000.0001) // Begin MONITOR dynamic field statistics
(PID.TID 0000.0001) // =======================================================
(PID.TID 0000.0001) %MON time_tsnumber                =                    12
(PID.TID 0000.0001) %MON time_secondsf                =   4.3200000000000E+04
(PID.TID 0000.0001) %MON dynstat_eta_max              =   1.1538249424841E+00
(PID.TID 0000.0001) %MON dynstat_eta_min              =  -3.5825111387536E+00
(PID.TID 0000.0001) %MON dynstat_eta_mean             =  -9.6958121518984E-04
(PID.TID 0000.0001) %MON dynstat_eta_sd               =   7.1161231378403E-01
(PID.TID 0000.0001) %MON dynstat_eta_del2             =   9.2813098716603E-05
(PID.TID 0000.0001) %MON dynstat_uvel_max             =   8.4593378971671E-01
(PID.TID 0000.0001) %MON dynstat_uvel_min             =  -1.5399538312113E+00
(PID.TID 0000.0001) %MON dynstat_uvel_mean            =   1.7384293833420E-03
(PID.TID 0000.0001) %MON dynstat_uvel_sd              =   2.2795626353357E-02
(PID.TID 0000.0001) %MON dynstat_uvel_del2            =   1.6868561334871E-05
(PID.TID 0000.0001) %MON dynstat_vvel_max             =   1.4271214882642E+00
(PID.TID 0000.0001) %MON dynstat_vvel_min             =  -9.3590299235092E-01
(PID.TID 0000.0001) %MON dynstat_vvel_mean            =   1.5389420755808E-03
(PID.TID 0000.0001) %MON dynstat_vvel_sd              =   2.4248680700162E-02
(PID.TID 0000.0001) %MON dynstat_vvel_del2            =   1.7968037134127E-05
(PID.TID 0000.0001) %MON dynstat_wvel_max             =   3.7109310677005E-03
(PID.TID 0000.0001) %MON dynstat_wvel_min             =  -3.6811081420066E-03
(PID.TID 0000.0001) %MON dynstat_wvel_mean            =   6.1880948454722E-08
(PID.TID 0000.0001) %MON dynstat_wvel_sd              =   3.6577285493476E-05
(PID.TID 0000.0001) %MON dynstat_wvel_del2            =   5.8507207928361E-08
(PID.TID 0000.0001) %MON dynstat_theta_max            =   3.2653929725180E+01
(PID.TID 0000.0001) %MON dynstat_theta_min            =  -2.0423660377050E+00
(PID.TID 0000.0001) %MON dynstat_theta_mean           =   3.5906620518452E+00
(PID.TID 0000.0001) %MON dynstat_theta_sd             =   4.4367837633585E+00
(PID.TID 0000.0001) %MON dynstat_theta_del2           =   1.0870863576931E-04
(PID.TID 0000.0001) %MON dynstat_salt_max             =   4.0711519074642E+01
(PID.TID 0000.0001) %MON dynstat_salt_min             =   2.2792111033882E+01
(PID.TID 0000.0001) %MON dynstat_salt_mean            =   3.4725913516173E+01
(PID.TID 0000.0001) %MON dynstat_salt_sd              =   3.7465420588053E-01
(PID.TID 0000.0001) %MON dynstat_salt_del2            =   2.6305491976193E-05
(PID.TID 0000.0001) %MON dynstat_sst_max              =   3.2653929725180E+01
(PID.TID 0000.0001) %MON dynstat_sst_min              =  -1.9509276397537E+00
(PID.TID 0000.0001) %MON dynstat_sst_mean             =   1.8493923145479E+01
(PID.TID 0000.0001) %MON dynstat_sst_sd               =   1.0119066289184E+01
(PID.TID 0000.0001) %MON dynstat_sst_del2             =   8.7982639456079E-04
(PID.TID 0000.0001) %MON dynstat_sss_max              =   3.9450684440128E+01
(PID.TID 0000.0001) %MON dynstat_sss_min              =   2.2792111033882E+01
(PID.TID 0000.0001) %MON dynstat_sss_mean             =   3.4673227154246E+01
(PID.TID 0000.0001) %MON dynstat_sss_sd               =   1.0099336874985E+00
(PID.TID 0000.0001) %MON dynstat_sss_del2             =   4.2872405229514E-04
(PID.TID 0000.0001) %MON forcing_qnet_max             =   2.3391573219135E+03
(PID.TID 0000.0001) %MON forcing_qnet_min             =  -1.2506650343236E+03
(PID.TID 0000.0001) %MON forcing_qnet_mean            =  -3.5342357355160E+01
(PID.TID 0000.0001) %MON forcing_qnet_sd              =   1.7644955316934E+02
(PID.TID 0000.0001) %MON forcing_qnet_del2            =   4.9533849731750E-01
(PID.TID 0000.0001) %MON forcing_qsw_max              =   0.0000000000000E+00
(PID.TID 0000.0001) %MON forcing_qsw_min              =  -4.4212752698133E+02
(PID.TID 0000.0001) %MON forcing_qsw_mean             =  -8.9823283311370E+01
(PID.TID 0000.0001) %MON forcing_qsw_sd               =   1.2361311685954E+02
(PID.TID 0000.0001) %MON forcing_qsw_del2             =   2.0142526386226E-01
(PID.TID 0000.0001) %MON forcing_empmr_max            =   3.2024469692260E-03
(PID.TID 0000.0001) %MON forcing_empmr_min            =  -6.7830786108971E-02
(PID.TID 0000.0001) %MON forcing_empmr_mean           =  -8.7186024928485E-06
(PID.TID 0000.0001) %MON forcing_empmr_sd             =   2.9946816245101E-04
(PID.TID 0000.0001) %MON forcing_empmr_del2           =   1.9809839750617E-06
(PID.TID 0000.0001) %MON forcing_fu_max               =   1.3115412592888E+00
(PID.TID 0000.0001) %MON forcing_fu_min               =  -1.2792027592659E+00
(PID.TID 0000.0001) %MON forcing_fu_mean              =   1.3278339953155E-02
(PID.TID 0000.0001) %MON forcing_fu_sd                =   1.1823077973904E-01
(PID.TID 0000.0001) %MON forcing_fu_del2              =   1.7171979063587E-04
(PID.TID 0000.0001) %MON forcing_fv_max               =   8.4244284033775E-01
(PID.TID 0000.0001) %MON forcing_fv_min               =  -8.3236324787140E-01
(PID.TID 0000.0001) %MON forcing_fv_mean              =  -5.0105924243692E-03
(PID.TID 0000.0001) %MON forcing_fv_sd                =   1.1260404680580E-01
(PID.TID 0000.0001) %MON forcing_fv_del2              =   1.3513539061440E-04
(PID.TID 0000.0001) %MON trAdv_CFL_u_max              =   9.7426228738435E-02
(PID.TID 0000.0001) %MON trAdv_CFL_v_max              =   1.0462219348012E-01
(PID.TID 0000.0001) %MON trAdv_CFL_w_max              =   3.8003291270646E-01
(PID.TID 0000.0001) %MON advcfl_uvel_max              =   1.0191362379516E-01
(PID.TID 0000.0001) %MON advcfl_vvel_max              =   1.0133078710716E-01
(PID.TID 0000.0001) %MON advcfl_wvel_max              =   3.7107864680725E-01
(PID.TID 0000.0001) %MON advcfl_W_hf_max              =   3.7607318849663E-01
(PID.TID 0000.0001) %MON pe_b_mean                    =   6.6611023982289E-04
(PID.TID 0000.0001) %MON ke_max                       =   1.2527964984627E+00
(PID.TID 0000.0001) %MON ke_mean                      =   5.3669692974333E-04
(PID.TID 0000.0001) %MON ke_vol                       =   1.3349975188955E+18
(PID.TID 0000.0001) %MON vort_r_min                   =  -4.4132959168750E-05
(PID.TID 0000.0001) %MON vort_r_max                   =   4.3912866709011E-05
(PID.TID 0000.0001) %MON vort_a_mean                  =  -1.9727864647440E-05
(PID.TID 0000.0001) %MON vort_a_sd                    =   7.4543520912808E-05
(PID.TID 0000.0001) %MON vort_p_mean                  =  -2.1760535822019E-05
(PID.TID 0000.0001) %MON vort_p_sd                    =   9.7241822529892E-05
(PID.TID 0000.0001) %MON surfExpan_theta_mean         =  -2.2421879788329E-06
(PID.TID 0000.0001) %MON surfExpan_salt_mean          =  -2.2869862469754E-07
(PID.TID 0000.0001) // =======================================================
(PID.TID 0000.0001) // End MONITOR dynamic field statistics
(PID.TID 0000.0001) // =======================================================
 cg2d: Sum(rhs),rhsMax =   1.85663641953576E+00  5.66227175011072E-02
 cg2d: Sum(rhs),rhsMax =   1.80287721609918E+00  5.63828150378657E-02
(PID.TID 0000.0001)      cg2d_init_res =   2.63299793160099E-01
(PID.TID 0000.0001)      cg2d_iters(min,last) =      -1     102
(PID.TID 0000.0001)      cg2d_last_res =   6.72863919266038E-06
(PID.TID 0000.0001) // =======================================================
(PID.TID 0000.0001) // Begin MONITOR dynamic field statistics
(PID.TID 0000.0001) // =======================================================
(PID.TID 0000.0001) %MON time_tsnumber                =                    14
(PID.TID 0000.0001) %MON time_secondsf                =   5.0400000000000E+04
(PID.TID 0000.0001) %MON dynstat_eta_max              =   1.1141308639878E+00
(PID.TID 0000.0001) %MON dynstat_eta_min              =  -3.3611898547196E+00
(PID.TID 0000.0001) %MON dynstat_eta_mean             =  -9.1249222964796E-04
(PID.TID 0000.0001) %MON dynstat_eta_sd               =   7.0697366374756E-01
(PID.TID 0000.0001) %MON dynstat_eta_del2             =   9.4063611514080E-05
(PID.TID 0000.0001) %MON dynstat_uvel_max             =   9.8908198887744E-01
(PID.TID 0000.0001) %MON dynstat_uvel_min             =  -1.5160620756792E+00
(PID.TID 0000.0001) %MON dynstat_uvel_mean            =   1.6563958337846E-03
(PID.TID 0000.0001) %MON dynstat_uvel_sd              =   2.2826721653151E-02
(PID.TID 0000.0001) %MON dynstat_uvel_del2            =   1.6985186278962E-05
(PID.TID 0000.0001) %MON dynstat_vvel_max             =   1.5013535783826E+00
(PID.TID 0000.0001) %MON dynstat_vvel_min             =  -9.9776338472234E-01
(PID.TID 0000.0001) %MON dynstat_vvel_mean            =   1.6051489668801E-03
(PID.TID 0000.0001) %MON dynstat_vvel_sd              =   2.4223473806464E-02
(PID.TID 0000.0001) %MON dynstat_vvel_del2            =   1.7911582318259E-05
(PID.TID 0000.0001) %MON dynstat_wvel_max             =   4.0589038976382E-03
(PID.TID 0000.0001) %MON dynstat_wvel_min             =  -3.0325594565644E-03
(PID.TID 0000.0001) %MON dynstat_wvel_mean            =   6.9450430649006E-08
(PID.TID 0000.0001) %MON dynstat_wvel_sd              =   3.6404473116895E-05
(PID.TID 0000.0001) %MON dynstat_wvel_del2            =   6.0804735957236E-08
(PID.TID 0000.0001) %MON dynstat_theta_max            =   3.2649520404373E+01
(PID.TID 0000.0001) %MON dynstat_theta_min            =  -2.0423796996801E+00
(PID.TID 0000.0001) %MON dynstat_theta_mean           =   3.5906768790239E+00
(PID.TID 0000.0001) %MON dynstat_theta_sd             =   4.4368519072107E+00
(PID.TID 0000.0001) %MON dynstat_theta_del2           =   1.0836686497322E-04
(PID.TID 0000.0001) %MON dynstat_salt_max             =   4.0711519803445E+01
(PID.TID 0000.0001) %MON dynstat_salt_min             =   2.2751380067681E+01
(PID.TID 0000.0001) %MON dynstat_salt_mean            =   3.4725871394235E+01
(PID.TID 0000.0001) %MON dynstat_salt_sd              =   3.7453817954151E-01
(PID.TID 0000.0001) %MON dynstat_salt_del2            =   2.6245590277338E-05
(PID.TID 0000.0001) %MON dynstat_sst_max              =   3.2649520404373E+01
(PID.TID 0000.0001) %MON dynstat_sst_min              =  -1.9495957627581E+00
(PID.TID 0000.0001) %MON dynstat_sst_mean             =   1.8494854907787E+01
(PID.TID 0000.0001) %MON dynstat_sst_sd               =   1.0122400242207E+01
(PID.TID 0000.0001) %MON dynstat_sst_del2             =   8.7833936129460E-04
(PID.TID 0000.0001) %MON dynstat_sss_max              =   3.9407722026413E+01
(PID.TID 0000.0001) %MON dynstat_sss_min              =   2.2751380067681E+01
(PID.TID 0000.0001) %MON dynstat_sss_mean             =   3.4665255507662E+01
(PID.TID 0000.0001) %MON dynstat_sss_sd               =   1.0018628971286E+00
(PID.TID 0000.0001) %MON dynstat_sss_del2             =   4.3350009862926E-04
(PID.TID 0000.0001) %MON forcing_qnet_max             =   1.0160735963008E+03
(PID.TID 0000.0001) %MON forcing_qnet_min             =  -1.2035693004995E+03
(PID.TID 0000.0001) %MON forcing_qnet_mean            =  -2.9860162743500E+01
(PID.TID 0000.0001) %MON forcing_qnet_sd              =   1.7736808646199E+02
(PID.TID 0000.0001) %MON forcing_qnet_del2            =   4.7460384748273E-01
(PID.TID 0000.0001) %MON forcing_qsw_max              =   0.0000000000000E+00
(PID.TID 0000.0001) %MON forcing_qsw_min              =  -4.4005677424244E+02
(PID.TID 0000.0001) %MON forcing_qsw_mean             =  -8.8008978757463E+01
(PID.TID 0000.0001) %MON forcing_qsw_sd               =   1.2262568124230E+02
(PID.TID 0000.0001) %MON forcing_qsw_del2             =   1.9929414782273E-01
(PID.TID 0000.0001) %MON forcing_empmr_max            =   3.2237414270639E-03
(PID.TID 0000.0001) %MON forcing_empmr_min            =  -6.5197221934795E-02
(PID.TID 0000.0001) %MON forcing_empmr_mean           =  -7.7772977062479E-06
(PID.TID 0000.0001) %MON forcing_empmr_sd             =   2.8923878932253E-04
(PID.TID 0000.0001) %MON forcing_empmr_del2           =   1.8647377754756E-06
(PID.TID 0000.0001) %MON forcing_fu_max               =   1.3077673912048E+00
(PID.TID 0000.0001) %MON forcing_fu_min               =  -1.2484983801842E+00
(PID.TID 0000.0001) %MON forcing_fu_mean              =   1.3129538045363E-02
(PID.TID 0000.0001) %MON forcing_fu_sd                =   1.1706461610746E-01
(PID.TID 0000.0001) %MON forcing_fu_del2              =   1.6941467615617E-04
(PID.TID 0000.0001) %MON forcing_fv_max               =   8.0774784088135E-01
(PID.TID 0000.0001) %MON forcing_fv_min               =  -8.0337700247764E-01
(PID.TID 0000.0001) %MON forcing_fv_mean              =  -4.8822295332922E-03
(PID.TID 0000.0001) %MON forcing_fv_sd                =   1.1131207298337E-01
(PID.TID 0000.0001) %MON forcing_fv_del2              =   1.3338260623837E-04
(PID.TID 0000.0001) %MON trAdv_CFL_u_max              =   9.5867748459525E-02
(PID.TID 0000.0001) %MON trAdv_CFL_v_max              =   1.0990589959637E-01
(PID.TID 0000.0001) %MON trAdv_CFL_w_max              =   3.1174387825748E-01
(PID.TID 0000.0001) %MON advcfl_uvel_max              =   1.0033247549334E-01
(PID.TID 0000.0001) %MON advcfl_vvel_max              =   1.0660153397921E-01
(PID.TID 0000.0001) %MON advcfl_wvel_max              =   3.2474138102845E-01
(PID.TID 0000.0001) %MON advcfl_W_hf_max              =   3.4435500170017E-01
(PID.TID 0000.0001) %MON pe_b_mean                    =   6.5745431868598E-04
(PID.TID 0000.0001) %MON ke_max                       =   1.3785747473844E+00
(PID.TID 0000.0001) %MON ke_mean                      =   5.3675770921982E-04
(PID.TID 0000.0001) %MON ke_vol                       =   1.3349975405132E+18
(PID.TID 0000.0001) %MON vort_r_min                   =  -4.4161392398073E-05
(PID.TID 0000.0001) %MON vort_r_max                   =   4.5826264672245E-05
(PID.TID 0000.0001) %MON vort_a_mean                  =  -1.9727864647440E-05
(PID.TID 0000.0001) %MON vort_a_sd                    =   7.4543530349155E-05
(PID.TID 0000.0001) %MON vort_p_mean                  =  -2.1760535580502E-05
(PID.TID 0000.0001) %MON vort_p_sd                    =   9.7241946940404E-05
(PID.TID 0000.0001) %MON surfExpan_theta_mean         =  -2.5004832538316E-06
(PID.TID 0000.0001) %MON surfExpan_salt_mean          =  -2.5260683962935E-07
(PID.TID 0000.0001) // =======================================================
(PID.TID 0000.0001) // End MONITOR dynamic field statistics
(PID.TID 0000.0001) // =======================================================
 cg2d: Sum(rhs),rhsMax =   1.75193352584023E+00  5.61521987312597E-02
 cg2d: Sum(rhs),rhsMax =   1.70311012084292E+00  5.59271591985714E-02
(PID.TID 0000.0001)      cg2d_init_res =   2.52495501861634E-01
(PID.TID 0000.0001)      cg2d_iters(min,last) =      -1     108
(PID.TID 0000.0001)      cg2d_last_res =   6.43275234702631E-06
(PID.TID 0000.0001) // =======================================================
(PID.TID 0000.0001) // Begin MONITOR dynamic field statistics
(PID.TID 0000.0001) // =======================================================
(PID.TID 0000.0001) %MON time_tsnumber                =                    16
(PID.TID 0000.0001) %MON time_secondsf                =   5.7600000000000E+04
(PID.TID 0000.0001) %MON dynstat_eta_max              =   1.1141958352931E+00
(PID.TID 0000.0001) %MON dynstat_eta_min              =  -3.2420323665540E+00
(PID.TID 0000.0001) %MON dynstat_eta_mean             =  -8.6199699992136E-04
(PID.TID 0000.0001) %MON dynstat_eta_sd               =   7.0219565712614E-01
(PID.TID 0000.0001) %MON dynstat_eta_del2             =   9.4789890802066E-05
(PID.TID 0000.0001) %MON dynstat_uvel_max             =   1.0674192076414E+00
(PID.TID 0000.0001) %MON dynstat_uvel_min             =  -1.5054413438765E+00
(PID.TID 0000.0001) %MON dynstat_uvel_mean            =   1.5222140314151E-03
(PID.TID 0000.0001) %MON dynstat_uvel_sd              =   2.2857813343407E-02
(PID.TID 0000.0001) %MON dynstat_uvel_del2            =   1.7142027951728E-05
(PID.TID 0000.0001) %MON dynstat_vvel_max             =   1.5505179204657E+00
(PID.TID 0000.0001) %MON dynstat_vvel_min             =  -1.0103407601678E+00
(PID.TID 0000.0001) %MON dynstat_vvel_mean            =   1.6438958196810E-03
(PID.TID 0000.0001) %MON dynstat_vvel_sd              =   2.4215187834937E-02
(PID.TID 0000.0001) %MON dynstat_vvel_del2            =   1.7884911118414E-05
(PID.TID 0000.0001) %MON dynstat_wvel_max             =   4.7908539020856E-03
(PID.TID 0000.0001) %MON dynstat_wvel_min             =  -2.7703451790186E-03
(PID.TID 0000.0001) %MON dynstat_wvel_mean            =   7.0179797011422E-08
(PID.TID 0000.0001) %MON dynstat_wvel_sd              =   3.6163289965991E-05
(PID.TID 0000.0001) %MON dynstat_wvel_del2            =   6.2657133640344E-08
(PID.TID 0000.0001) %MON dynstat_theta_max            =   3.2645955738106E+01
(PID.TID 0000.0001) %MON dynstat_theta_min            =  -2.0423738685890E+00
(PID.TID 0000.0001) %MON dynstat_theta_mean           =   3.5906890306531E+00
(PID.TID 0000.0001) %MON dynstat_theta_sd             =   4.4369116033379E+00
(PID.TID 0000.0001) %MON dynstat_theta_del2           =   1.0807587221129E-04
(PID.TID 0000.0001) %MON dynstat_salt_max             =   4.0711520626220E+01
(PID.TID 0000.0001) %MON dynstat_salt_min             =   2.2713836130734E+01
(PID.TID 0000.0001) %MON dynstat_salt_mean            =   3.4725833746341E+01
(PID.TID 0000.0001) %MON dynstat_salt_sd              =   3.7443376954602E-01
(PID.TID 0000.0001) %MON dynstat_salt_del2            =   2.6184230478369E-05
(PID.TID 0000.0001) %MON dynstat_sst_max              =   3.2644836099654E+01
(PID.TID 0000.0001) %MON dynstat_sst_min              =  -1.9482994896008E+00
(PID.TID 0000.0001) %MON dynstat_sst_mean             =   1.8495382695534E+01
(PID.TID 0000.0001) %MON dynstat_sst_sd               =   1.0125397272967E+01
(PID.TID 0000.0001) %MON dynstat_sst_del2             =   8.7723924561642E-04
(PID.TID 0000.0001) %MON dynstat_sss_max              =   3.9365711597282E+01
(PID.TID 0000.0001) %MON dynstat_sss_min              =   2.2713836130734E+01
(PID.TID 0000.0001) %MON dynstat_sss_mean             =   3.4658732738371E+01
(PID.TID 0000.0001) %MON dynstat_sss_sd               =   9.9510718681595E-01
(PID.TID 0000.0001) %MON dynstat_sss_del2             =   4.3763904424312E-04
(PID.TID 0000.0001) %MON forcing_qnet_max             =   1.5472188720703E+03
(PID.TID 0000.0001) %MON forcing_qnet_min             =  -1.2003198784816E+03
(PID.TID 0000.0001) %MON forcing_qnet_mean            =  -2.4277426377767E+01
(PID.TID 0000.0001) %MON forcing_qnet_sd              =   1.7782780976365E+02
(PID.TID 0000.0001) %MON forcing_qnet_del2            =   4.9250147829992E-01
(PID.TID 0000.0001) %MON forcing_qsw_max              =   0.0000000000000E+00
(PID.TID 0000.0001) %MON forcing_qsw_min              =  -4.4426918921126E+02
(PID.TID 0000.0001) %MON forcing_qsw_mean             =  -8.6269757093697E+01
(PID.TID 0000.0001) %MON forcing_qsw_sd               =   1.2119873440184E+02
(PID.TID 0000.0001) %MON forcing_qsw_del2             =   1.9753312382536E-01
(PID.TID 0000.0001) %MON forcing_empmr_max            =   3.2381184864789E-03
(PID.TID 0000.0001) %MON forcing_empmr_min            =  -6.3686549663544E-02
(PID.TID 0000.0001) %MON forcing_empmr_mean           =  -7.0632399928132E-06
(PID.TID 0000.0001) %MON forcing_empmr_sd             =   2.8330638086459E-04
(PID.TID 0000.0001) %MON forcing_empmr_del2           =   1.8447645565638E-06
(PID.TID 0000.0001) %MON forcing_fu_max               =   1.2831115722656E+00
(PID.TID 0000.0001) %MON forcing_fu_min               =  -1.2242371439934E+00
(PID.TID 0000.0001) %MON forcing_fu_mean              =   1.3012093706713E-02
(PID.TID 0000.0001) %MON forcing_fu_sd                =   1.1564564974799E-01
(PID.TID 0000.0001) %MON forcing_fu_del2              =   1.6685938177087E-04
(PID.TID 0000.0001) %MON forcing_fv_max               =   7.6573076844215E-01
(PID.TID 0000.0001) %MON forcing_fv_min               =  -7.5678727030754E-01
(PID.TID 0000.0001) %MON forcing_fv_mean              =  -4.8697185320192E-03
(PID.TID 0000.0001) %MON forcing_fv_sd                =   1.1004825475556E-01
(PID.TID 0000.0001) %MON forcing_fv_del2              =   1.3207754531005E-04
(PID.TID 0000.0001) %MON trAdv_CFL_u_max              =   9.4986804567050E-02
(PID.TID 0000.0001) %MON trAdv_CFL_v_max              =   1.1342290413506E-01
(PID.TID 0000.0001) %MON trAdv_CFL_w_max              =   3.3755506389995E-01
(PID.TID 0000.0001) %MON advcfl_uvel_max              =   9.9440967020779E-02
(PID.TID 0000.0001) %MON advcfl_vvel_max              =   1.1009238007876E-01
(PID.TID 0000.0001) %MON advcfl_wvel_max              =   3.5146400358932E-01
(PID.TID 0000.0001) %MON advcfl_W_hf_max              =   3.7024012309865E-01
(PID.TID 0000.0001) %MON pe_b_mean                    =   6.4859756542383E-04
(PID.TID 0000.0001) %MON ke_max                       =   1.4401275593159E+00
(PID.TID 0000.0001) %MON ke_mean                      =   5.3710396111185E-04
(PID.TID 0000.0001) %MON ke_vol                       =   1.3349975594855E+18
(PID.TID 0000.0001) %MON vort_r_min                   =  -4.4248713886588E-05
(PID.TID 0000.0001) %MON vort_r_max                   =   4.6866100302678E-05
(PID.TID 0000.0001) %MON vort_a_mean                  =  -1.9727864647440E-05
(PID.TID 0000.0001) %MON vort_a_sd                    =   7.4543528775922E-05
(PID.TID 0000.0001) %MON vort_p_mean                  =  -2.1760535220442E-05
(PID.TID 0000.0001) %MON vort_p_sd                    =   9.7242028594683E-05
(PID.TID 0000.0001) %MON surfExpan_theta_mean         =  -2.5004381966615E-06
(PID.TID 0000.0001) %MON surfExpan_salt_mean          =  -2.2991646273101E-07
(PID.TID 0000.0001) // =======================================================
(PID.TID 0000.0001) // End MONITOR dynamic field statistics
(PID.TID 0000.0001) // =======================================================
 cg2d: Sum(rhs),rhsMax =   1.65636888149614E+00  5.57533903522048E-02
 cg2d: Sum(rhs),rhsMax =   1.61118966337333E+00  5.56597958889664E-02
(PID.TID 0000.0001)      cg2d_init_res =   2.43097619659848E-01
(PID.TID 0000.0001)      cg2d_iters(min,last) =      -1     107
(PID.TID 0000.0001)      cg2d_last_res =   7.00596313072126E-06
(PID.TID 0000.0001) // =======================================================
(PID.TID 0000.0001) // Begin MONITOR dynamic field statistics
(PID.TID 0000.0001) // =======================================================
(PID.TID 0000.0001) %MON time_tsnumber                =                    18
(PID.TID 0000.0001) %MON time_secondsf                =   6.4800000000000E+04
(PID.TID 0000.0001) %MON dynstat_eta_max              =   1.1110921762386E+00
(PID.TID 0000.0001) %MON dynstat_eta_min              =  -3.1496447172297E+00
(PID.TID 0000.0001) %MON dynstat_eta_mean             =  -8.1547319761351E-04
(PID.TID 0000.0001) %MON dynstat_eta_sd               =   6.9763763448863E-01
(PID.TID 0000.0001) %MON dynstat_eta_del2             =   9.4792910042843E-05
(PID.TID 0000.0001) %MON dynstat_uvel_max             =   1.0710258467209E+00
(PID.TID 0000.0001) %MON dynstat_uvel_min             =  -1.4939666392997E+00
(PID.TID 0000.0001) %MON dynstat_uvel_mean            =   1.3493383049689E-03
(PID.TID 0000.0001) %MON dynstat_uvel_sd              =   2.2849378159324E-02
(PID.TID 0000.0001) %MON dynstat_uvel_del2            =   1.7330494088471E-05
(PID.TID 0000.0001) %MON dynstat_vvel_max             =   1.5780997993301E+00
(PID.TID 0000.0001) %MON dynstat_vvel_min             =  -9.3722147841563E-01
(PID.TID 0000.0001) %MON dynstat_vvel_mean            =   1.6655817072130E-03
(PID.TID 0000.0001) %MON dynstat_vvel_sd              =   2.4204135497511E-02
(PID.TID 0000.0001) %MON dynstat_vvel_del2            =   1.7859729960947E-05
(PID.TID 0000.0001) %MON dynstat_wvel_max             =   4.8046057368426E-03
(PID.TID 0000.0001) %MON dynstat_wvel_min             =  -2.7384605544553E-03
(PID.TID 0000.0001) %MON dynstat_wvel_mean            =   5.8912319908448E-08
(PID.TID 0000.0001) %MON dynstat_wvel_sd              =   3.5942137740350E-05
(PID.TID 0000.0001) %MON dynstat_wvel_del2            =   6.3905261154214E-08
(PID.TID 0000.0001) %MON dynstat_theta_max            =   3.2645358643631E+01
(PID.TID 0000.0001) %MON dynstat_theta_min            =  -2.0423585261027E+00
(PID.TID 0000.0001) %MON dynstat_theta_mean           =   3.5906981850635E+00
(PID.TID 0000.0001) %MON dynstat_theta_sd             =   4.4369605704066E+00
(PID.TID 0000.0001) %MON dynstat_theta_del2           =   1.0783096011625E-04
(PID.TID 0000.0001) %MON dynstat_salt_max             =   4.0711521433457E+01
(PID.TID 0000.0001) %MON dynstat_salt_min             =   2.2663998849687E+01
(PID.TID 0000.0001) %MON dynstat_salt_mean            =   3.4725799941232E+01
(PID.TID 0000.0001) %MON dynstat_salt_sd              =   3.7433952895649E-01
(PID.TID 0000.0001) %MON dynstat_salt_del2            =   2.6115720667900E-05
(PID.TID 0000.0001) %MON dynstat_sst_max              =   3.2640059551286E+01
(PID.TID 0000.0001) %MON dynstat_sst_min              =  -1.9470351878905E+00
(PID.TID 0000.0001) %MON dynstat_sst_mean             =   1.8495283351137E+01
(PID.TID 0000.0001) %MON dynstat_sst_sd               =   1.0128152922448E+01
(PID.TID 0000.0001) %MON dynstat_sst_del2             =   8.7664996721167E-04
(PID.TID 0000.0001) %MON dynstat_sss_max              =   3.9323830534037E+01
(PID.TID 0000.0001) %MON dynstat_sss_min              =   2.2663998849687E+01
(PID.TID 0000.0001) %MON dynstat_sss_mean             =   3.4653375411250E+01
(PID.TID 0000.0001) %MON dynstat_sss_sd               =   9.8946376455854E-01
(PID.TID 0000.0001) %MON dynstat_sss_del2             =   4.4131510854684E-04
(PID.TID 0000.0001) %MON forcing_qnet_max             =   1.0352283935547E+03
(PID.TID 0000.0001) %MON forcing_qnet_min             =  -1.1177545061909E+03
(PID.TID 0000.0001) %MON forcing_qnet_mean            =  -1.7659948620113E+01
(PID.TID 0000.0001) %MON forcing_qnet_sd              =   1.7618360031051E+02
(PID.TID 0000.0001) %MON forcing_qnet_del2            =   4.7727624593797E-01
(PID.TID 0000.0001) %MON forcing_qsw_max              =   0.0000000000000E+00
(PID.TID 0000.0001) %MON forcing_qsw_min              =  -4.4924366781959E+02
(PID.TID 0000.0001) %MON forcing_qsw_mean             =  -8.2949506651298E+01
(PID.TID 0000.0001) %MON forcing_qsw_sd               =   1.1831108827648E+02
(PID.TID 0000.0001) %MON forcing_qsw_del2             =   1.9420425277423E-01
(PID.TID 0000.0001) %MON forcing_empmr_max            =   3.2142470590770E-03
(PID.TID 0000.0001) %MON forcing_empmr_min            =  -6.2504485249519E-02
(PID.TID 0000.0001) %MON forcing_empmr_mean           =  -6.5360386132047E-06
(PID.TID 0000.0001) %MON forcing_empmr_sd             =   2.7874178293205E-04
(PID.TID 0000.0001) %MON forcing_empmr_del2           =   1.8293165470063E-06
(PID.TID 0000.0001) %MON forcing_fu_max               =   1.2605389356613E+00
(PID.TID 0000.0001) %MON forcing_fu_min               =  -1.1657155752182E+00
(PID.TID 0000.0001) %MON forcing_fu_mean              =   1.2971035281941E-02
(PID.TID 0000.0001) %MON forcing_fu_sd                =   1.1442598302159E-01
(PID.TID 0000.0001) %MON forcing_fu_del2              =   1.6519860066859E-04
(PID.TID 0000.0001) %MON forcing_fv_max               =   7.7954685688019E-01
(PID.TID 0000.0001) %MON forcing_fv_min               =  -7.0292547345161E-01
(PID.TID 0000.0001) %MON forcing_fv_mean              =  -4.9528890627119E-03
(PID.TID 0000.0001) %MON forcing_fv_sd                =   1.0899954359917E-01
(PID.TID 0000.0001) %MON forcing_fv_del2              =   1.3096655814420E-04
(PID.TID 0000.0001) %MON trAdv_CFL_u_max              =   9.3626227682123E-02
(PID.TID 0000.0001) %MON trAdv_CFL_v_max              =   1.1266219220338E-01
(PID.TID 0000.0001) %MON trAdv_CFL_w_max              =   4.1563929157099E-01
(PID.TID 0000.0001) %MON advcfl_uvel_max              =   9.8054002530212E-02
(PID.TID 0000.0001) %MON advcfl_vvel_max              =   1.1205079323294E-01
(PID.TID 0000.0001) %MON advcfl_wvel_max              =   4.3280568248164E-01
(PID.TID 0000.0001) %MON advcfl_W_hf_max              =   4.5631444928305E-01
(PID.TID 0000.0001) %MON pe_b_mean                    =   6.4020457130415E-04
(PID.TID 0000.0001) %MON ke_max                       =   1.4467437031711E+00
(PID.TID 0000.0001) %MON ke_mean                      =   5.3645521976371E-04
(PID.TID 0000.0001) %MON ke_vol                       =   1.3349975768020E+18
(PID.TID 0000.0001) %MON vort_r_min                   =  -4.4003902102261E-05
(PID.TID 0000.0001) %MON vort_r_max                   =   4.7211346338640E-05
(PID.TID 0000.0001) %MON vort_a_mean                  =  -1.9727864647440E-05
(PID.TID 0000.0001) %MON vort_a_sd                    =   7.4543513864110E-05
(PID.TID 0000.0001) %MON vort_p_mean                  =  -2.1760534748572E-05
(PID.TID 0000.0001) %MON vort_p_sd                    =   9.7242013575573E-05
(PID.TID 0000.0001) %MON surfExpan_theta_mean         =  -2.3400461337211E-06
(PID.TID 0000.0001) %MON surfExpan_salt_mean          =  -1.6543532338958E-07
(PID.TID 0000.0001) // =======================================================
(PID.TID 0000.0001) // End MONITOR dynamic field statistics
(PID.TID 0000.0001) // =======================================================
 cg2d: Sum(rhs),rhsMax =   1.56577407909701E+00  5.56695556083103E-02
 cg2d: Sum(rhs),rhsMax =   1.52135078651497E+00  5.57819482664500E-02
(PID.TID 0000.0001)      cg2d_init_res =   2.37696892455483E-01
(PID.TID 0000.0001)      cg2d_iters(min,last) =      -1      98
(PID.TID 0000.0001)      cg2d_last_res =   6.94569837349244E-06
(PID.TID 0000.0001) // =======================================================
(PID.TID 0000.0001) // Begin MONITOR dynamic field statistics
(PID.TID 0000.0001) // =======================================================
(PID.TID 0000.0001) %MON time_tsnumber                =                    20
(PID.TID 0000.0001) %MON time_secondsf                =   7.2000000000000E+04
(PID.TID 0000.0001) %MON dynstat_eta_max              =   1.1061344079201E+00
(PID.TID 0000.0001) %MON dynstat_eta_min              =  -3.0571778048723E+00
(PID.TID 0000.0001) %MON dynstat_eta_mean             =  -7.7000294799194E-04
(PID.TID 0000.0001) %MON dynstat_eta_sd               =   6.9350779334291E-01
(PID.TID 0000.0001) %MON dynstat_eta_del2             =   9.4552549208113E-05
(PID.TID 0000.0001) %MON dynstat_uvel_max             =   1.0815204437952E+00
(PID.TID 0000.0001) %MON dynstat_uvel_min             =  -1.4685323595502E+00
(PID.TID 0000.0001) %MON dynstat_uvel_mean            =   1.1721766388076E-03
(PID.TID 0000.0001) %MON dynstat_uvel_sd              =   2.2786448366650E-02
(PID.TID 0000.0001) %MON dynstat_uvel_del2            =   1.7539310572499E-05
(PID.TID 0000.0001) %MON dynstat_vvel_max             =   1.5916829647582E+00
(PID.TID 0000.0001) %MON dynstat_vvel_min             =  -9.3744222956228E-01
(PID.TID 0000.0001) %MON dynstat_vvel_mean            =   1.6620617266971E-03
(PID.TID 0000.0001) %MON dynstat_vvel_sd              =   2.4152819628338E-02
(PID.TID 0000.0001) %MON dynstat_vvel_del2            =   1.7814354178913E-05
(PID.TID 0000.0001) %MON dynstat_wvel_max             =   4.1995250237764E-03
(PID.TID 0000.0001) %MON dynstat_wvel_min             =  -2.6057577449083E-03
(PID.TID 0000.0001) %MON dynstat_wvel_mean            =   4.4428278814043E-08
(PID.TID 0000.0001) %MON dynstat_wvel_sd              =   3.5717662591524E-05
(PID.TID 0000.0001) %MON dynstat_wvel_del2            =   6.4463005163280E-08
(PID.TID 0000.0001) %MON dynstat_theta_max            =   3.2644834946554E+01
(PID.TID 0000.0001) %MON dynstat_theta_min            =  -2.0423412045108E+00
(PID.TID 0000.0001) %MON dynstat_theta_mean           =   3.5907050797394E+00
(PID.TID 0000.0001) %MON dynstat_theta_sd             =   4.4370006339829E+00
(PID.TID 0000.0001) %MON dynstat_theta_del2           =   1.0761703479964E-04
(PID.TID 0000.0001) %MON dynstat_salt_max             =   4.0711522217411E+01
(PID.TID 0000.0001) %MON dynstat_salt_min             =   2.2131127851781E+01
(PID.TID 0000.0001) %MON dynstat_salt_mean            =   3.4725769603963E+01
(PID.TID 0000.0001) %MON dynstat_salt_sd              =   3.7425414460940E-01
(PID.TID 0000.0001) %MON dynstat_salt_del2            =   2.6036696360229E-05
(PID.TID 0000.0001) %MON dynstat_sst_max              =   3.2635636579895E+01
(PID.TID 0000.0001) %MON dynstat_sst_min              =  -1.9458445617011E+00
(PID.TID 0000.0001) %MON dynstat_sst_mean             =   1.8494725201543E+01
(PID.TID 0000.0001) %MON dynstat_sst_sd               =   1.0130738088774E+01
(PID.TID 0000.0001) %MON dynstat_sst_del2             =   8.7648161607077E-04
(PID.TID 0000.0001) %MON dynstat_sss_max              =   3.9281685701964E+01
(PID.TID 0000.0001) %MON dynstat_sss_min              =   2.2131127851781E+01
(PID.TID 0000.0001) %MON dynstat_sss_mean             =   3.4648991385857E+01
(PID.TID 0000.0001) %MON dynstat_sss_sd               =   9.8475359261896E-01
(PID.TID 0000.0001) %MON dynstat_sss_del2             =   4.4440313593479E-04
(PID.TID 0000.0001) %MON forcing_qnet_max             =   1.1682095947266E+03
(PID.TID 0000.0001) %MON forcing_qnet_min             =  -1.1583614665006E+03
(PID.TID 0000.0001) %MON forcing_qnet_mean            =  -1.3550069847979E+01
(PID.TID 0000.0001) %MON forcing_qnet_sd              =   1.7487615253526E+02
(PID.TID 0000.0001) %MON forcing_qnet_del2            =   4.8496241523060E-01
(PID.TID 0000.0001) %MON forcing_qsw_max              =   0.0000000000000E+00
(PID.TID 0000.0001) %MON forcing_qsw_min              =  -4.5212391723179E+02
(PID.TID 0000.0001) %MON forcing_qsw_mean             =  -8.0813608166813E+01
(PID.TID 0000.0001) %MON forcing_qsw_sd               =   1.1612847134832E+02
(PID.TID 0000.0001) %MON forcing_qsw_del2             =   1.9204501886503E-01
(PID.TID 0000.0001) %MON forcing_empmr_max            =   3.2564292196184E-03
(PID.TID 0000.0001) %MON forcing_empmr_min            =  -6.2986083328724E-02
(PID.TID 0000.0001) %MON forcing_empmr_mean           =  -6.4266795156373E-06
(PID.TID 0000.0001) %MON forcing_empmr_sd             =   2.8020994568230E-04
(PID.TID 0000.0001) %MON forcing_empmr_del2           =   1.8897492016889E-06
(PID.TID 0000.0001) %MON forcing_fu_max               =   1.2258340120316E+00
(PID.TID 0000.0001) %MON forcing_fu_min               =  -1.1208214759827E+00
(PID.TID 0000.0001) %MON forcing_fu_mean              =   1.2887187428555E-02
(PID.TID 0000.0001) %MON forcing_fu_sd                =   1.1318091177627E-01
(PID.TID 0000.0001) %MON forcing_fu_del2              =   1.6315489555948E-04
(PID.TID 0000.0001) %MON forcing_fv_max               =   7.6468044519424E-01
(PID.TID 0000.0001) %MON forcing_fv_min               =  -6.9027791145483E-01
(PID.TID 0000.0001) %MON forcing_fv_mean              =  -5.1207330688604E-03
(PID.TID 0000.0001) %MON forcing_fv_sd                =   1.0801135905433E-01
(PID.TID 0000.0001) %MON forcing_fv_del2              =   1.2975337208700E-04
(PID.TID 0000.0001) %MON trAdv_CFL_u_max              =   1.0319351058011E-01
(PID.TID 0000.0001) %MON trAdv_CFL_v_max              =   1.0921411444850E-01
(PID.TID 0000.0001) %MON trAdv_CFL_w_max              =   4.7750280053228E-01
(PID.TID 0000.0001) %MON advcfl_uvel_max              =   1.0190995490520E-01
(PID.TID 0000.0001) %MON advcfl_vvel_max              =   1.1301524710428E-01
(PID.TID 0000.0001) %MON advcfl_wvel_max              =   4.9727289821865E-01
(PID.TID 0000.0001) %MON advcfl_W_hf_max              =   5.2454623788626E-01
(PID.TID 0000.0001) %MON pe_b_mean                    =   6.3264721058448E-04
(PID.TID 0000.0001) %MON ke_max                       =   1.4292404748005E+00
(PID.TID 0000.0001) %MON ke_mean                      =   5.3365289467844E-04
(PID.TID 0000.0001) %MON ke_vol                       =   1.3349975932180E+18
(PID.TID 0000.0001) %MON vort_r_min                   =  -4.3292746508963E-05
(PID.TID 0000.0001) %MON vort_r_max                   =   4.7179592391609E-05
(PID.TID 0000.0001) %MON vort_a_mean                  =  -1.9727864647440E-05
(PID.TID 0000.0001) %MON vort_a_sd                    =   7.4543487651736E-05
(PID.TID 0000.0001) %MON vort_p_mean                  =  -2.1760534187703E-05
(PID.TID 0000.0001) %MON vort_p_sd                    =   9.7241978796312E-05
(PID.TID 0000.0001) %MON surfExpan_theta_mean         =  -2.1458939574149E-06
(PID.TID 0000.0001) %MON surfExpan_salt_mean          =  -1.1355390474074E-07
(PID.TID 0000.0001) // =======================================================
(PID.TID 0000.0001) // End MONITOR dynamic field statistics
(PID.TID 0000.0001) // =======================================================
 cg2d: Sum(rhs),rhsMax =   1.47652960401474E+00  5.59811650129783E-02
 cg2d: Sum(rhs),rhsMax =   1.43403524051852E+00  5.62327212444906E-02
(PID.TID 0000.0001)      cg2d_init_res =   2.33855133647099E-01
(PID.TID 0000.0001)      cg2d_iters(min,last) =      -1     105
(PID.TID 0000.0001)      cg2d_last_res =   6.61300313445321E-06
(PID.TID 0000.0001) // =======================================================
(PID.TID 0000.0001) // Begin MONITOR dynamic field statistics
(PID.TID 0000.0001) // =======================================================
(PID.TID 0000.0001) %MON time_tsnumber                =                    22
(PID.TID 0000.0001) %MON time_secondsf                =   7.9200000000000E+04
(PID.TID 0000.0001) %MON dynstat_eta_max              =   1.1012883564832E+00
(PID.TID 0000.0001) %MON dynstat_eta_min              =  -3.0370216889716E+00
(PID.TID 0000.0001) %MON dynstat_eta_mean             =  -7.2580983459640E-04
(PID.TID 0000.0001) %MON dynstat_eta_sd               =   6.8986434951373E-01
(PID.TID 0000.0001) %MON dynstat_eta_del2             =   9.4207415433959E-05
(PID.TID 0000.0001) %MON dynstat_uvel_max             =   1.1578105797702E+00
(PID.TID 0000.0001) %MON dynstat_uvel_min             =  -1.4348215578957E+00
(PID.TID 0000.0001) %MON dynstat_uvel_mean            =   1.0199408252760E-03
(PID.TID 0000.0001) %MON dynstat_uvel_sd              =   2.2699420363910E-02
(PID.TID 0000.0001) %MON dynstat_uvel_del2            =   1.7737610854256E-05
(PID.TID 0000.0001) %MON dynstat_vvel_max             =   1.5982224402442E+00
(PID.TID 0000.0001) %MON dynstat_vvel_min             =  -9.3750928676305E-01
(PID.TID 0000.0001) %MON dynstat_vvel_mean            =   1.6232947114796E-03
(PID.TID 0000.0001) %MON dynstat_vvel_sd              =   2.4045651877000E-02
(PID.TID 0000.0001) %MON dynstat_vvel_del2            =   1.7751333006979E-05
(PID.TID 0000.0001) %MON dynstat_wvel_max             =   4.2571059431293E-03
(PID.TID 0000.0001) %MON dynstat_wvel_min             =  -2.5979191365236E-03
(PID.TID 0000.0001) %MON dynstat_wvel_mean            =   3.5265613167665E-08
(PID.TID 0000.0001) %MON dynstat_wvel_sd              =   3.5444835821186E-05
(PID.TID 0000.0001) %MON dynstat_wvel_del2            =   6.4540985289242E-08
(PID.TID 0000.0001) %MON dynstat_theta_max            =   3.2644360771493E+01
(PID.TID 0000.0001) %MON dynstat_theta_min            =  -2.0423223778223E+00
(PID.TID 0000.0001) %MON dynstat_theta_mean           =   3.5907089965929E+00
(PID.TID 0000.0001) %MON dynstat_theta_sd             =   4.4370287733524E+00
(PID.TID 0000.0001) %MON dynstat_theta_del2           =   1.0742563245661E-04
(PID.TID 0000.0001) %MON dynstat_salt_max             =   4.0711523027388E+01
(PID.TID 0000.0001) %MON dynstat_salt_min             =   2.1604831240486E+01
(PID.TID 0000.0001) %MON dynstat_salt_mean            =   3.4725742194794E+01
(PID.TID 0000.0001) %MON dynstat_salt_sd              =   3.7417666139968E-01
(PID.TID 0000.0001) %MON dynstat_salt_del2            =   2.5951860274991E-05
(PID.TID 0000.0001) %MON dynstat_sst_max              =   3.2632167587371E+01
(PID.TID 0000.0001) %MON dynstat_sst_min              =  -1.9446726064212E+00
(PID.TID 0000.0001) %MON dynstat_sst_mean             =   1.8493594677935E+01
(PID.TID 0000.0001) %MON dynstat_sst_sd               =   1.0133078275922E+01
(PID.TID 0000.0001) %MON dynstat_sst_del2             =   8.7638515528688E-04
(PID.TID 0000.0001) %MON dynstat_sss_max              =   3.9239534959744E+01
(PID.TID 0000.0001) %MON dynstat_sss_min              =   2.1604831240486E+01
(PID.TID 0000.0001) %MON dynstat_sss_mean             =   3.4645388256919E+01
(PID.TID 0000.0001) %MON dynstat_sss_sd               =   9.8082589309152E-01
(PID.TID 0000.0001) %MON dynstat_sss_del2             =   4.4700542803469E-04
(PID.TID 0000.0001) %MON forcing_qnet_max             =   1.3284168701172E+03
(PID.TID 0000.0001) %MON forcing_qnet_min             =  -1.2000433397540E+03
(PID.TID 0000.0001) %MON forcing_qnet_mean            =  -6.2111591607175E+00
(PID.TID 0000.0001) %MON forcing_qnet_sd              =   1.7218785689362E+02
(PID.TID 0000.0001) %MON forcing_qnet_del2            =   4.7095600241851E-01
(PID.TID 0000.0001) %MON forcing_qsw_max              =   0.0000000000000E+00
(PID.TID 0000.0001) %MON forcing_qsw_min              =  -4.5344443849592E+02
(PID.TID 0000.0001) %MON forcing_qsw_mean             =  -7.7143097239247E+01
(PID.TID 0000.0001) %MON forcing_qsw_sd               =   1.1231227663010E+02
(PID.TID 0000.0001) %MON forcing_qsw_del2             =   1.8790896119784E-01
(PID.TID 0000.0001) %MON forcing_empmr_max            =   3.2754177227616E-03
(PID.TID 0000.0001) %MON forcing_empmr_min            =  -6.3555017113686E-02
(PID.TID 0000.0001) %MON forcing_empmr_mean           =  -6.1476230044574E-06
(PID.TID 0000.0001) %MON forcing_empmr_sd             =   2.8062759046950E-04
(PID.TID 0000.0001) %MON forcing_empmr_del2           =   1.8525187525360E-06
(PID.TID 0000.0001) %MON forcing_fu_max               =   1.1840735077858E+00
(PID.TID 0000.0001) %MON forcing_fu_min               =  -1.0881353020668E+00
(PID.TID 0000.0001) %MON forcing_fu_mean              =   1.2891343090310E-02
(PID.TID 0000.0001) %MON forcing_fu_sd                =   1.1231495634040E-01
(PID.TID 0000.0001) %MON forcing_fu_del2              =   1.6191430789897E-04
(PID.TID 0000.0001) %MON forcing_fv_max               =   7.6968684792518E-01
(PID.TID 0000.0001) %MON forcing_fv_min               =  -6.9660458893369E-01
(PID.TID 0000.0001) %MON forcing_fv_mean              =  -5.2972798624034E-03
(PID.TID 0000.0001) %MON forcing_fv_sd                =   1.0753674624467E-01
(PID.TID 0000.0001) %MON forcing_fv_del2              =   1.2913768458386E-04
(PID.TID 0000.0001) %MON trAdv_CFL_u_max              =   1.0987931884403E-01
(PID.TID 0000.0001) %MON trAdv_CFL_v_max              =   1.0968209483960E-01
(PID.TID 0000.0001) %MON trAdv_CFL_w_max              =   5.2027718123993E-01
(PID.TID 0000.0001) %MON advcfl_uvel_max              =   1.0909865333576E-01
(PID.TID 0000.0001) %MON advcfl_vvel_max              =   1.1347957351497E-01
(PID.TID 0000.0001) %MON advcfl_wvel_max              =   5.4186621460447E-01
(PID.TID 0000.0001) %MON advcfl_W_hf_max              =   5.7184815336818E-01
(PID.TID 0000.0001) %MON pe_b_mean                    =   6.2601717792924E-04
(PID.TID 0000.0001) %MON ke_max                       =   1.4096524975873E+00
(PID.TID 0000.0001) %MON ke_mean                      =   5.2903108844979E-04
(PID.TID 0000.0001) %MON ke_vol                       =   1.3349976093892E+18
(PID.TID 0000.0001) %MON vort_r_min                   =  -4.2252564519729E-05
(PID.TID 0000.0001) %MON vort_r_max                   =   4.7948199701800E-05
(PID.TID 0000.0001) %MON vort_a_mean                  =  -1.9727864647440E-05
(PID.TID 0000.0001) %MON vort_a_sd                    =   7.4543453960904E-05
(PID.TID 0000.0001) %MON vort_p_mean                  =  -2.1760533595988E-05
(PID.TID 0000.0001) %MON vort_p_sd                    =   9.7242030836532E-05
(PID.TID 0000.0001) %MON surfExpan_theta_mean         =  -1.9322524308890E-06
(PID.TID 0000.0001) %MON surfExpan_salt_mean          =  -9.1873446895766E-08
(PID.TID 0000.0001) // =======================================================
(PID.TID 0000.0001) // End MONITOR dynamic field statistics
(PID.TID 0000.0001) // =======================================================
 cg2d: Sum(rhs),rhsMax =   1.39000439562777E+00  5.65000350762125E-02
 cg2d: Sum(rhs),rhsMax =   1.34564831526181E+00  5.67433917100275E-02
(PID.TID 0000.0001)      cg2d_init_res =   2.27311310256174E-01
(PID.TID 0000.0001)      cg2d_iters(min,last) =      -1     103
(PID.TID 0000.0001)      cg2d_last_res =   6.80251610434872E-06
(PID.TID 0000.0001) // =======================================================
(PID.TID 0000.0001) // Begin MONITOR dynamic field statistics
(PID.TID 0000.0001) // =======================================================
(PID.TID 0000.0001) %MON time_tsnumber                =                    24
(PID.TID 0000.0001) %MON time_secondsf                =   8.6400000000000E+04
(PID.TID 0000.0001) %MON dynstat_eta_max              =   1.0977276053765E+00
(PID.TID 0000.0001) %MON dynstat_eta_min              =  -2.9925838602623E+00
(PID.TID 0000.0001) %MON dynstat_eta_mean             =  -6.8107446283652E-04
(PID.TID 0000.0001) %MON dynstat_eta_sd               =   6.8671354716088E-01
(PID.TID 0000.0001) %MON dynstat_eta_del2             =   9.3663356694489E-05
(PID.TID 0000.0001) %MON dynstat_uvel_max             =   1.1804460226990E+00
(PID.TID 0000.0001) %MON dynstat_uvel_min             =  -1.3993641863794E+00
(PID.TID 0000.0001) %MON dynstat_uvel_mean            =   9.0599202531646E-04
(PID.TID 0000.0001) %MON dynstat_uvel_sd              =   2.2634255691096E-02
(PID.TID 0000.0001) %MON dynstat_uvel_del2            =   1.7899211215065E-05
(PID.TID 0000.0001) %MON dynstat_vvel_max             =   1.6029248684465E+00
(PID.TID 0000.0001) %MON dynstat_vvel_min             =  -9.3741700846157E-01
(PID.TID 0000.0001) %MON dynstat_vvel_mean            =   1.5538811324448E-03
(PID.TID 0000.0001) %MON dynstat_vvel_sd              =   2.3910184545983E-02
(PID.TID 0000.0001) %MON dynstat_vvel_del2            =   1.7658138320340E-05
(PID.TID 0000.0001) %MON dynstat_wvel_max             =   4.5363076004281E-03
(PID.TID 0000.0001) %MON dynstat_wvel_min             =  -2.6075520532766E-03
(PID.TID 0000.0001) %MON dynstat_wvel_mean            =   3.1862659150516E-08
(PID.TID 0000.0001) %MON dynstat_wvel_sd              =   3.5107607032199E-05
(PID.TID 0000.0001) %MON dynstat_wvel_del2            =   6.4340260238937E-08
(PID.TID 0000.0001) %MON dynstat_theta_max            =   3.2644006885283E+01
(PID.TID 0000.0001) %MON dynstat_theta_min            =  -2.0422985965745E+00
(PID.TID 0000.0001) %MON dynstat_theta_mean           =   3.5907105407005E+00
(PID.TID 0000.0001) %MON dynstat_theta_sd             =   4.4370478949443E+00
(PID.TID 0000.0001) %MON dynstat_theta_del2           =   1.0724965171262E-04
(PID.TID 0000.0001) %MON dynstat_salt_max             =   4.0711523916249E+01
(PID.TID 0000.0001) %MON dynstat_salt_min             =   2.1077393613681E+01
(PID.TID 0000.0001) %MON dynstat_salt_mean            =   3.4725717378615E+01
(PID.TID 0000.0001) %MON dynstat_salt_sd              =   3.7410653340010E-01
(PID.TID 0000.0001) %MON dynstat_salt_del2            =   2.5869917698715E-05
(PID.TID 0000.0001) %MON dynstat_sst_max              =   3.2633308517704E+01
(PID.TID 0000.0001) %MON dynstat_sst_min              =  -1.9435456736046E+00
(PID.TID 0000.0001) %MON dynstat_sst_mean             =   1.8492258656939E+01
(PID.TID 0000.0001) %MON dynstat_sst_sd               =   1.0135213308643E+01
(PID.TID 0000.0001) %MON dynstat_sst_del2             =   8.7651043502120E-04
(PID.TID 0000.0001) %MON dynstat_sss_max              =   3.9197181377510E+01
(PID.TID 0000.0001) %MON dynstat_sss_min              =   2.1077393613681E+01
(PID.TID 0000.0001) %MON dynstat_sss_mean             =   3.4642444992727E+01
(PID.TID 0000.0001) %MON dynstat_sss_sd               =   9.7759469907992E-01
(PID.TID 0000.0001) %MON dynstat_sss_del2             =   4.4954136938676E-04
(PID.TID 0000.0001) %MON forcing_qnet_max             =   2.4866570368722E+03
(PID.TID 0000.0001) %MON forcing_qnet_min             =  -1.0920305252034E+03
(PID.TID 0000.0001) %MON forcing_qnet_mean            =  -1.9430945840240E+00
(PID.TID 0000.0001) %MON forcing_qnet_sd              =   1.7155964561934E+02
(PID.TID 0000.0001) %MON forcing_qnet_del2            =   4.5735371562625E-01
(PID.TID 0000.0001) %MON forcing_qsw_max              =   0.0000000000000E+00
(PID.TID 0000.0001) %MON forcing_qsw_min              =  -4.5257611844006E+02
(PID.TID 0000.0001) %MON forcing_qsw_mean             =  -7.5199225401825E+01
(PID.TID 0000.0001) %MON forcing_qsw_sd               =   1.0984260611152E+02
(PID.TID 0000.0001) %MON forcing_qsw_del2             =   1.8567326179489E-01
(PID.TID 0000.0001) %MON forcing_empmr_max            =   5.5729169398546E-03
(PID.TID 0000.0001) %MON forcing_empmr_min            =  -6.4762249588966E-02
(PID.TID 0000.0001) %MON forcing_empmr_mean           =  -6.4169559822189E-06
(PID.TID 0000.0001) %MON forcing_empmr_sd             =   2.8482240532918E-04
(PID.TID 0000.0001) %MON forcing_empmr_del2           =   1.9057982292756E-06
(PID.TID 0000.0001) %MON forcing_fu_max               =   1.1420767903328E+00
(PID.TID 0000.0001) %MON forcing_fu_min               =  -1.0572651028633E+00
(PID.TID 0000.0001) %MON forcing_fu_mean              =   1.2883709443727E-02
(PID.TID 0000.0001) %MON forcing_fu_sd                =   1.1147832404412E-01
(PID.TID 0000.0001) %MON forcing_fu_del2              =   1.6054462550205E-04
(PID.TID 0000.0001) %MON forcing_fv_max               =   7.7238428592682E-01
(PID.TID 0000.0001) %MON forcing_fv_min               =  -7.0306566176813E-01
(PID.TID 0000.0001) %MON forcing_fv_mean              =  -5.5178093803452E-03
(PID.TID 0000.0001) %MON forcing_fv_sd                =   1.0718751569040E-01
(PID.TID 0000.0001) %MON forcing_fv_del2              =   1.2828558468852E-04
(PID.TID 0000.0001) %MON trAdv_CFL_u_max              =   1.1443786937337E-01
(PID.TID 0000.0001) %MON trAdv_CFL_v_max              =   1.1002014832763E-01
(PID.TID 0000.0001) %MON trAdv_CFL_w_max              =   5.6186933301148E-01
(PID.TID 0000.0001) %MON advcfl_uvel_max              =   1.1123155519755E-01
(PID.TID 0000.0001) %MON advcfl_vvel_max              =   1.1381346292451E-01
(PID.TID 0000.0001) %MON advcfl_wvel_max              =   5.8520911885136E-01
(PID.TID 0000.0001) %MON advcfl_W_hf_max              =   6.1710783957024E-01
(PID.TID 0000.0001) %MON pe_b_mean                    =   6.2031176378279E-04
(PID.TID 0000.0001) %MON ke_max                       =   1.3973299805973E+00
(PID.TID 0000.0001) %MON ke_mean                      =   5.2426174114625E-04
(PID.TID 0000.0001) %MON ke_vol                       =   1.3349976250678E+18
(PID.TID 0000.0001) %MON vort_r_min                   =  -4.1090153482764E-05
(PID.TID 0000.0001) %MON vort_r_max                   =   4.7365260205485E-05
(PID.TID 0000.0001) %MON vort_a_mean                  =  -1.9727864647440E-05
(PID.TID 0000.0001) %MON vort_a_sd                    =   7.4543416326756E-05
(PID.TID 0000.0001) %MON vort_p_mean                  =  -2.1760533059801E-05
(PID.TID 0000.0001) %MON vort_p_sd                    =   9.7242153532966E-05
(PID.TID 0000.0001) %MON surfExpan_theta_mean         =  -1.6667391472696E-06
(PID.TID 0000.0001) %MON surfExpan_salt_mean          =  -7.6567536638252E-08
(PID.TID 0000.0001) // =======================================================
(PID.TID 0000.0001) // End MONITOR dynamic field statistics
(PID.TID 0000.0001) // =======================================================
 cg2d: Sum(rhs),rhsMax =   1.29944392057443E+00  5.69341708467728E-02
 cg2d: Sum(rhs),rhsMax =   1.25211695780204E+00  5.70492929089525E-02
(PID.TID 0000.0001)      cg2d_init_res =   2.18508177982759E-01
(PID.TID 0000.0001)      cg2d_iters(min,last) =      -1     103
(PID.TID 0000.0001)      cg2d_last_res =   6.87892798841482E-06
(PID.TID 0000.0001) // =======================================================
(PID.TID 0000.0001) // Begin MONITOR dynamic field statistics
(PID.TID 0000.0001) // =======================================================
(PID.TID 0000.0001) %MON time_tsnumber                =                    26
(PID.TID 0000.0001) %MON time_secondsf                =   9.3600000000000E+04
(PID.TID 0000.0001) %MON dynstat_eta_max              =   1.0956776699915E+00
(PID.TID 0000.0001) %MON dynstat_eta_min              =  -2.9341341703783E+00
(PID.TID 0000.0001) %MON dynstat_eta_mean             =  -6.3373533394393E-04
(PID.TID 0000.0001) %MON dynstat_eta_sd               =   6.8408858599133E-01
(PID.TID 0000.0001) %MON dynstat_eta_del2             =   9.2913770121091E-05
(PID.TID 0000.0001) %MON dynstat_uvel_max             =   1.1643582910207E+00
(PID.TID 0000.0001) %MON dynstat_uvel_min             =  -1.3700518617532E+00
(PID.TID 0000.0001) %MON dynstat_uvel_mean            =   8.2897443929329E-04
(PID.TID 0000.0001) %MON dynstat_uvel_sd              =   2.2589080376247E-02
(PID.TID 0000.0001) %MON dynstat_uvel_del2            =   1.7985434988760E-05
(PID.TID 0000.0001) %MON dynstat_vvel_max             =   1.6099990330822E+00
(PID.TID 0000.0001) %MON dynstat_vvel_min             =  -9.3723286256759E-01
(PID.TID 0000.0001) %MON dynstat_vvel_mean            =   1.4704116451541E-03
(PID.TID 0000.0001) %MON dynstat_vvel_sd              =   2.3814777558792E-02
(PID.TID 0000.0001) %MON dynstat_vvel_del2            =   1.7530240702541E-05
(PID.TID 0000.0001) %MON dynstat_wvel_max             =   4.8498687038372E-03
(PID.TID 0000.0001) %MON dynstat_wvel_min             =  -3.3153910998272E-03
(PID.TID 0000.0001) %MON dynstat_wvel_mean            =   3.2855776490570E-08
(PID.TID 0000.0001) %MON dynstat_wvel_sd              =   3.4754042575651E-05
(PID.TID 0000.0001) %MON dynstat_wvel_del2            =   6.3847400113965E-08
(PID.TID 0000.0001) %MON dynstat_theta_max            =   3.2652234286630E+01
(PID.TID 0000.0001) %MON dynstat_theta_min            =  -2.0422659725435E+00
(PID.TID 0000.0001) %MON dynstat_theta_mean           =   3.5907089645676E+00
(PID.TID 0000.0001) %MON dynstat_theta_sd             =   4.4370555385584E+00
(PID.TID 0000.0001) %MON dynstat_theta_del2           =   1.0708518138336E-04
(PID.TID 0000.0001) %MON dynstat_salt_max             =   4.0711524898586E+01
(PID.TID 0000.0001) %MON dynstat_salt_min             =   2.0548419325703E+01
(PID.TID 0000.0001) %MON dynstat_salt_mean            =   3.4725694749179E+01
(PID.TID 0000.0001) %MON dynstat_salt_sd              =   3.7404293433364E-01
(PID.TID 0000.0001) %MON dynstat_salt_del2            =   2.5802786076686E-05
(PID.TID 0000.0001) %MON dynstat_sst_max              =   3.2652234286630E+01
(PID.TID 0000.0001) %MON dynstat_sst_min              =  -1.9424718377758E+00
(PID.TID 0000.0001) %MON dynstat_sst_mean             =   1.8490561256259E+01
(PID.TID 0000.0001) %MON dynstat_sst_sd               =   1.0137093639947E+01
(PID.TID 0000.0001) %MON dynstat_sst_del2             =   8.7688906802781E-04
(PID.TID 0000.0001) %MON dynstat_sss_max              =   3.9155448587971E+01
(PID.TID 0000.0001) %MON dynstat_sss_min              =   2.0548419325703E+01
(PID.TID 0000.0001) %MON dynstat_sss_mean             =   3.4640005871512E+01
(PID.TID 0000.0001) %MON dynstat_sss_sd               =   9.7493144245057E-01
(PID.TID 0000.0001) %MON dynstat_sss_del2             =   4.5270482005076E-04
(PID.TID 0000.0001) %MON forcing_qnet_max             =   2.0366761583530E+03
(PID.TID 0000.0001) %MON forcing_qnet_min             =  -1.2000444449502E+03
(PID.TID 0000.0001) %MON forcing_qnet_mean            =   5.5214295126474E+00
(PID.TID 0000.0001) %MON forcing_qnet_sd              =   1.7054225478686E+02
(PID.TID 0000.0001) %MON forcing_qnet_del2            =   5.0459129362990E-01
(PID.TID 0000.0001) %MON forcing_qsw_max              =   0.0000000000000E+00
(PID.TID 0000.0001) %MON forcing_qsw_min              =  -4.4941274635720E+02
(PID.TID 0000.0001) %MON forcing_qsw_mean             =  -7.1965583089636E+01
(PID.TID 0000.0001) %MON forcing_qsw_sd               =   1.0633961547204E+02
(PID.TID 0000.0001) %MON forcing_qsw_del2             =   1.8182012905929E-01
(PID.TID 0000.0001) %MON forcing_empmr_max            =   3.4407824277878E-03
(PID.TID 0000.0001) %MON forcing_empmr_min            =  -6.6147416830063E-02
(PID.TID 0000.0001) %MON forcing_empmr_mean           =  -6.8467509837457E-06
(PID.TID 0000.0001) %MON forcing_empmr_sd             =   2.9196837775449E-04
(PID.TID 0000.0001) %MON forcing_empmr_del2           =   2.0079762158737E-06
(PID.TID 0000.0001) %MON forcing_fu_max               =   1.1251239776611E+00
(PID.TID 0000.0001) %MON forcing_fu_min               =  -1.0278474092484E+00
(PID.TID 0000.0001) %MON forcing_fu_mean              =   1.2885211317295E-02
(PID.TID 0000.0001) %MON forcing_fu_sd                =   1.1078641811804E-01
(PID.TID 0000.0001) %MON forcing_fu_del2              =   1.5970358606086E-04
(PID.TID 0000.0001) %MON forcing_fv_max               =   7.6528009772301E-01
(PID.TID 0000.0001) %MON forcing_fv_min               =  -7.0886986528237E-01
(PID.TID 0000.0001) %MON forcing_fv_mean              =  -5.7874409628923E-03
(PID.TID 0000.0001) %MON forcing_fv_sd                =   1.0670077713242E-01
(PID.TID 0000.0001) %MON forcing_fv_del2              =   1.2745157874380E-04
(PID.TID 0000.0001) %MON trAdv_CFL_u_max              =   1.1096499524247E-01
(PID.TID 0000.0001) %MON trAdv_CFL_v_max              =   1.1052638631720E-01
(PID.TID 0000.0001) %MON trAdv_CFL_w_max              =   6.4683132473949E-01
(PID.TID 0000.0001) %MON advcfl_uvel_max              =   1.0971563377482E-01
(PID.TID 0000.0001) %MON advcfl_vvel_max              =   1.1431575419862E-01
(PID.TID 0000.0001) %MON advcfl_wvel_max              =   6.7373191889667E-01
(PID.TID 0000.0001) %MON advcfl_W_hf_max              =   7.1043454786082E-01
(PID.TID 0000.0001) %MON pe_b_mean                    =   6.1557846170950E-04
(PID.TID 0000.0001) %MON ke_max                       =   1.3959592094299E+00
(PID.TID 0000.0001) %MON ke_mean                      =   5.2089480474214E-04
(PID.TID 0000.0001) %MON ke_vol                       =   1.3349976414775E+18
(PID.TID 0000.0001) %MON vort_r_min                   =  -4.0020779104552E-05
(PID.TID 0000.0001) %MON vort_r_max                   =   4.6921136206197E-05
(PID.TID 0000.0001) %MON vort_a_mean                  =  -1.9727864647440E-05
(PID.TID 0000.0001) %MON vort_a_sd                    =   7.4543377721683E-05
(PID.TID 0000.0001) %MON vort_p_mean                  =  -2.1760532612425E-05
(PID.TID 0000.0001) %MON vort_p_sd                    =   9.7242263343879E-05
(PID.TID 0000.0001) %MON surfExpan_theta_mean         =  -1.3166177665209E-06
(PID.TID 0000.0001) %MON surfExpan_salt_mean          =  -5.1785516447950E-08
(PID.TID 0000.0001) // =======================================================
(PID.TID 0000.0001) // End MONITOR dynamic field statistics
(PID.TID 0000.0001) // =======================================================
 cg2d: Sum(rhs),rhsMax =   1.20359275276970E+00  5.70861991181559E-02
 cg2d: Sum(rhs),rhsMax =   1.15308002068252E+00  5.70484737576421E-02
(PID.TID 0000.0001)      cg2d_init_res =   2.10247483069935E-01
(PID.TID 0000.0001)      cg2d_iters(min,last) =      -1     102
(PID.TID 0000.0001)      cg2d_last_res =   6.44572187736941E-06
(PID.TID 0000.0001) // =======================================================
(PID.TID 0000.0001) // Begin MONITOR dynamic field statistics
(PID.TID 0000.0001) // =======================================================
(PID.TID 0000.0001) %MON time_tsnumber                =                    28
(PID.TID 0000.0001) %MON time_secondsf                =   1.0080000000000E+05
(PID.TID 0000.0001) %MON dynstat_eta_max              =   1.0948476576161E+00
(PID.TID 0000.0001) %MON dynstat_eta_min              =  -2.8673954260057E+00
(PID.TID 0000.0001) %MON dynstat_eta_mean             =  -5.8360965995892E-04
(PID.TID 0000.0001) %MON dynstat_eta_sd               =   6.8195187768520E-01
(PID.TID 0000.0001) %MON dynstat_eta_del2             =   9.1988405400729E-05
(PID.TID 0000.0001) %MON dynstat_uvel_max             =   1.1046695291850E+00
(PID.TID 0000.0001) %MON dynstat_uvel_min             =  -1.3551422346281E+00
(PID.TID 0000.0001) %MON dynstat_uvel_mean            =   7.8079428004590E-04
(PID.TID 0000.0001) %MON dynstat_uvel_sd              =   2.2568396891370E-02
(PID.TID 0000.0001) %MON dynstat_uvel_del2            =   1.7967254958444E-05
(PID.TID 0000.0001) %MON dynstat_vvel_max             =   1.6208658468173E+00
(PID.TID 0000.0001) %MON dynstat_vvel_min             =  -9.3678249026067E-01
(PID.TID 0000.0001) %MON dynstat_vvel_mean            =   1.3892632326232E-03
(PID.TID 0000.0001) %MON dynstat_vvel_sd              =   2.3768455725832E-02
(PID.TID 0000.0001) %MON dynstat_vvel_del2            =   1.7377709126377E-05
(PID.TID 0000.0001) %MON dynstat_wvel_max             =   5.1798934210067E-03
(PID.TID 0000.0001) %MON dynstat_wvel_min             =  -3.9823341608355E-03
(PID.TID 0000.0001) %MON dynstat_wvel_mean            =   3.7720772996493E-08
(PID.TID 0000.0001) %MON dynstat_wvel_sd              =   3.4426994287953E-05
(PID.TID 0000.0001) %MON dynstat_wvel_del2            =   6.2954174930852E-08
(PID.TID 0000.0001) %MON dynstat_theta_max            =   3.2670342216701E+01
(PID.TID 0000.0001) %MON dynstat_theta_min            =  -2.0422218852042E+00
(PID.TID 0000.0001) %MON dynstat_theta_mean           =   3.5907050764619E+00
(PID.TID 0000.0001) %MON dynstat_theta_sd             =   4.4370549893829E+00
(PID.TID 0000.0001) %MON dynstat_theta_del2           =   1.0693289661440E-04
(PID.TID 0000.0001) %MON dynstat_salt_max             =   4.0711525938766E+01
(PID.TID 0000.0001) %MON dynstat_salt_min             =   2.0011872810466E+01
(PID.TID 0000.0001) %MON dynstat_salt_mean            =   3.4725674032929E+01
(PID.TID 0000.0001) %MON dynstat_salt_sd              =   3.7398460425879E-01
(PID.TID 0000.0001) %MON dynstat_salt_del2            =   2.5753639639365E-05
(PID.TID 0000.0001) %MON dynstat_sst_max              =   3.2670342216701E+01
(PID.TID 0000.0001) %MON dynstat_sst_min              =  -1.9414207352676E+00
(PID.TID 0000.0001) %MON dynstat_sst_mean             =   1.8488780326085E+01
(PID.TID 0000.0001) %MON dynstat_sst_sd               =   1.0138856292047E+01
(PID.TID 0000.0001) %MON dynstat_sst_del2             =   8.7670052869828E-04
(PID.TID 0000.0001) %MON dynstat_sss_max              =   3.9115112761441E+01
(PID.TID 0000.0001) %MON dynstat_sss_min              =   2.0011872810466E+01
(PID.TID 0000.0001) %MON dynstat_sss_mean             =   3.4637970835807E+01
(PID.TID 0000.0001) %MON dynstat_sss_sd               =   9.7268846495566E-01
(PID.TID 0000.0001) %MON dynstat_sss_del2             =   4.5660837192636E-04
(PID.TID 0000.0001) %MON forcing_qnet_max             =   1.4914515380859E+03
(PID.TID 0000.0001) %MON forcing_qnet_min             =  -9.4046087111163E+02
(PID.TID 0000.0001) %MON forcing_qnet_mean            =   9.5654322335129E+00
(PID.TID 0000.0001) %MON forcing_qnet_sd              =   1.7043843828119E+02
(PID.TID 0000.0001) %MON forcing_qnet_del2            =   4.9258111901746E-01
(PID.TID 0000.0001) %MON forcing_qsw_max              =   0.0000000000000E+00
(PID.TID 0000.0001) %MON forcing_qsw_min              =  -4.4470117804610E+02
(PID.TID 0000.0001) %MON forcing_qsw_mean             =  -7.0268946014486E+01
(PID.TID 0000.0001) %MON forcing_qsw_sd               =   1.0459367355469E+02
(PID.TID 0000.0001) %MON forcing_qsw_del2             =   1.7984202646334E-01
(PID.TID 0000.0001) %MON forcing_empmr_max            =   3.4252386540174E-03
(PID.TID 0000.0001) %MON forcing_empmr_min            =  -6.8293265998363E-02
(PID.TID 0000.0001) %MON forcing_empmr_mean           =  -7.3076334894064E-06
(PID.TID 0000.0001) %MON forcing_empmr_sd             =   3.0370806222583E-04
(PID.TID 0000.0001) %MON forcing_empmr_del2           =   2.1638440173989E-06
(PID.TID 0000.0001) %MON forcing_fu_max               =   1.1061724424362E+00
(PID.TID 0000.0001) %MON forcing_fu_min               =  -1.0016193389893E+00
(PID.TID 0000.0001) %MON forcing_fu_mean              =   1.2899068710921E-02
(PID.TID 0000.0001) %MON forcing_fu_sd                =   1.1012430940570E-01
(PID.TID 0000.0001) %MON forcing_fu_del2              =   1.5829992622251E-04
(PID.TID 0000.0001) %MON forcing_fv_max               =   7.4338674545288E-01
(PID.TID 0000.0001) %MON forcing_fv_min               =  -7.1633074369735E-01
(PID.TID 0000.0001) %MON forcing_fv_mean              =  -6.1194047135844E-03
(PID.TID 0000.0001) %MON forcing_fv_sd                =   1.0624098310824E-01
(PID.TID 0000.0001) %MON forcing_fv_del2              =   1.2668051934069E-04
(PID.TID 0000.0001) %MON trAdv_CFL_u_max              =   1.0559220059479E-01
(PID.TID 0000.0001) %MON trAdv_CFL_v_max              =   1.1129979921737E-01
(PID.TID 0000.0001) %MON trAdv_CFL_w_max              =   6.9560059268945E-01
(PID.TID 0000.0001) %MON advcfl_uvel_max              =   1.0409125648088E-01
(PID.TID 0000.0001) %MON advcfl_vvel_max              =   1.1508733727560E-01
(PID.TID 0000.0001) %MON advcfl_wvel_max              =   7.3197610089091E-01
(PID.TID 0000.0001) %MON advcfl_W_hf_max              =   7.7211838122395E-01
(PID.TID 0000.0001) %MON pe_b_mean                    =   6.1173893992323E-04
(PID.TID 0000.0001) %MON ke_max                       =   1.4040954813621E+00
(PID.TID 0000.0001) %MON ke_mean                      =   5.1923227706024E-04
(PID.TID 0000.0001) %MON ke_vol                       =   1.3349976588459E+18
(PID.TID 0000.0001) %MON vort_r_min                   =  -3.9190425900495E-05
(PID.TID 0000.0001) %MON vort_r_max                   =   4.7080918741890E-05
(PID.TID 0000.0001) %MON vort_a_mean                  =  -1.9727864647440E-05
(PID.TID 0000.0001) %MON vort_a_sd                    =   7.4543341293183E-05
(PID.TID 0000.0001) %MON vort_p_mean                  =  -2.1760532269879E-05
(PID.TID 0000.0001) %MON vort_p_sd                    =   9.7242318745490E-05
(PID.TID 0000.0001) %MON surfExpan_theta_mean         =  -8.9786767726910E-07
(PID.TID 0000.0001) %MON surfExpan_salt_mean          =  -2.3412828194933E-08
(PID.TID 0000.0001) // =======================================================
(PID.TID 0000.0001) // End MONITOR dynamic field statistics
(PID.TID 0000.0001) // =======================================================
 cg2d: Sum(rhs),rhsMax =   1.09984980358632E+00  5.69544928409394E-02
 cg2d: Sum(rhs),rhsMax =   1.04609936939414E+00  5.68227373199297E-02
(PID.TID 0000.0001)      cg2d_init_res =   2.04222678817755E-01
(PID.TID 0000.0001)      cg2d_iters(min,last) =      -1      97
(PID.TID 0000.0001)      cg2d_last_res =   7.01858138999201E-06
(PID.TID 0000.0001) // =======================================================
(PID.TID 0000.0001) // Begin MONITOR dynamic field statistics
(PID.TID 0000.0001) // =======================================================
(PID.TID 0000.0001) %MON time_tsnumber                =                    30
(PID.TID 0000.0001) %MON time_secondsf                =   1.0800000000000E+05
(PID.TID 0000.0001) %MON dynstat_eta_max              =   1.0945559826407E+00
(PID.TID 0000.0001) %MON dynstat_eta_min              =  -2.8045077708066E+00
(PID.TID 0000.0001) %MON dynstat_eta_mean             =  -5.2946342517819E-04
(PID.TID 0000.0001) %MON dynstat_eta_sd               =   6.8012431151840E-01
(PID.TID 0000.0001) %MON dynstat_eta_del2             =   9.0959157518589E-05
(PID.TID 0000.0001) %MON dynstat_uvel_max             =   1.0091171704605E+00
(PID.TID 0000.0001) %MON dynstat_uvel_min             =  -1.3480308816644E+00
(PID.TID 0000.0001) %MON dynstat_uvel_mean            =   7.5387470552411E-04
(PID.TID 0000.0001) %MON dynstat_uvel_sd              =   2.2552714024493E-02
(PID.TID 0000.0001) %MON dynstat_uvel_del2            =   1.7834081023496E-05
(PID.TID 0000.0001) %MON dynstat_vvel_max             =   1.6349435477175E+00
(PID.TID 0000.0001) %MON dynstat_vvel_min             =  -9.3600393709364E-01
(PID.TID 0000.0001) %MON dynstat_vvel_mean            =   1.3186974351634E-03
(PID.TID 0000.0001) %MON dynstat_vvel_sd              =   2.3749886004322E-02
(PID.TID 0000.0001) %MON dynstat_vvel_del2            =   1.7214466892390E-05
(PID.TID 0000.0001) %MON dynstat_wvel_max             =   5.3060463533402E-03
(PID.TID 0000.0001) %MON dynstat_wvel_min             =  -4.0760959662421E-03
(PID.TID 0000.0001) %MON dynstat_wvel_mean            =   4.4720991261286E-08
(PID.TID 0000.0001) %MON dynstat_wvel_sd              =   3.4033295510209E-05
(PID.TID 0000.0001) %MON dynstat_wvel_del2            =   6.1574836753478E-08
(PID.TID 0000.0001) %MON dynstat_theta_max            =   3.2685638844119E+01
(PID.TID 0000.0001) %MON dynstat_theta_min            =  -2.0421667869093E+00
(PID.TID 0000.0001) %MON dynstat_theta_mean           =   3.5906983295731E+00
(PID.TID 0000.0001) %MON dynstat_theta_sd             =   4.4370436554197E+00
(PID.TID 0000.0001) %MON dynstat_theta_del2           =   1.0679835520607E-04
(PID.TID 0000.0001) %MON dynstat_salt_max             =   4.0711526971668E+01
(PID.TID 0000.0001) %MON dynstat_salt_min             =   1.9466505144242E+01
(PID.TID 0000.0001) %MON dynstat_salt_mean            =   3.4725655051662E+01
(PID.TID 0000.0001) %MON dynstat_salt_sd              =   3.7393121168241E-01
(PID.TID 0000.0001) %MON dynstat_salt_del2            =   2.5731078871931E-05
(PID.TID 0000.0001) %MON dynstat_sst_max              =   3.2685638844119E+01
(PID.TID 0000.0001) %MON dynstat_sst_min              =  -1.9404150600560E+00
(PID.TID 0000.0001) %MON dynstat_sst_mean             =   1.8486619788780E+01
(PID.TID 0000.0001) %MON dynstat_sst_sd               =   1.0140538435345E+01
(PID.TID 0000.0001) %MON dynstat_sst_del2             =   8.7612539950891E-04
(PID.TID 0000.0001) %MON dynstat_sss_max              =   3.9076135575599E+01
(PID.TID 0000.0001) %MON dynstat_sss_min              =   1.9466505144242E+01
(PID.TID 0000.0001) %MON dynstat_sss_mean             =   3.4636293216840E+01
(PID.TID 0000.0001) %MON dynstat_sss_sd               =   9.7085650938332E-01
(PID.TID 0000.0001) %MON dynstat_sss_del2             =   4.6204268748035E-04
(PID.TID 0000.0001) %MON forcing_qnet_max             =   2.2213203125000E+03
(PID.TID 0000.0001) %MON forcing_qnet_min             =  -1.1959839017910E+03
(PID.TID 0000.0001) %MON forcing_qnet_mean            =   1.6416765201150E+01
(PID.TID 0000.0001) %MON forcing_qnet_sd              =   1.6987297659022E+02
(PID.TID 0000.0001) %MON forcing_qnet_del2            =   5.2508549937465E-01
(PID.TID 0000.0001) %MON forcing_qsw_max              =   0.0000000000000E+00
(PID.TID 0000.0001) %MON forcing_qsw_min              =  -4.4096575923212E+02
(PID.TID 0000.0001) %MON forcing_qsw_mean             =  -6.7232048017798E+01
(PID.TID 0000.0001) %MON forcing_qsw_sd               =   1.0274059918665E+02
(PID.TID 0000.0001) %MON forcing_qsw_del2             =   1.7749446317696E-01
(PID.TID 0000.0001) %MON forcing_empmr_max            =   3.3570693340153E-03
(PID.TID 0000.0001) %MON forcing_empmr_min            =  -7.0629723370075E-02
(PID.TID 0000.0001) %MON forcing_empmr_mean           =  -7.7760290672498E-06
(PID.TID 0000.0001) %MON forcing_empmr_sd             =   3.2497374314879E-04
(PID.TID 0000.0001) %MON forcing_empmr_del2           =   2.4789969371332E-06
(PID.TID 0000.0001) %MON forcing_fu_max               =   1.0798367857933E+00
(PID.TID 0000.0001) %MON forcing_fu_min               =  -9.8050618171692E-01
(PID.TID 0000.0001) %MON forcing_fu_mean              =   1.2972697707215E-02
(PID.TID 0000.0001) %MON forcing_fu_sd                =   1.0955230760860E-01
(PID.TID 0000.0001) %MON forcing_fu_del2              =   1.5699601797622E-04
(PID.TID 0000.0001) %MON forcing_fv_max               =   7.2777307033539E-01
(PID.TID 0000.0001) %MON forcing_fv_min               =  -7.1523907756054E-01
(PID.TID 0000.0001) %MON forcing_fv_mean              =  -6.4683241942001E-03
(PID.TID 0000.0001) %MON forcing_fv_sd                =   1.0590456657964E-01
(PID.TID 0000.0001) %MON forcing_fv_del2              =   1.2587374004549E-04
(PID.TID 0000.0001) %MON trAdv_CFL_u_max              =   9.7512933879506E-02
(PID.TID 0000.0001) %MON trAdv_CFL_v_max              =   1.1229894485742E-01
(PID.TID 0000.0001) %MON trAdv_CFL_w_max              =   7.1733364044218E-01
(PID.TID 0000.0001) %MON advcfl_uvel_max              =   9.5087509372291E-02
(PID.TID 0000.0001) %MON advcfl_vvel_max              =   1.1608690495404E-01
(PID.TID 0000.0001) %MON advcfl_wvel_max              =   7.5461895156394E-01
(PID.TID 0000.0001) %MON advcfl_W_hf_max              =   7.9655638547565E-01
(PID.TID 0000.0001) %MON pe_b_mean                    =   6.0846444357360E-04
(PID.TID 0000.0001) %MON ke_max                       =   1.4190512417023E+00
(PID.TID 0000.0001) %MON ke_mean                      =   5.1835355145383E-04
(PID.TID 0000.0001) %MON ke_vol                       =   1.3349976776444E+18
(PID.TID 0000.0001) %MON vort_r_min                   =  -3.8603376491620E-05
(PID.TID 0000.0001) %MON vort_r_max                   =   4.7374511117466E-05
(PID.TID 0000.0001) %MON vort_a_mean                  =  -1.9727864647440E-05
(PID.TID 0000.0001) %MON vort_a_sd                    =   7.4543310029360E-05
(PID.TID 0000.0001) %MON vort_p_mean                  =  -2.1760532035806E-05
(PID.TID 0000.0001) %MON vort_p_sd                    =   9.7242352864866E-05
(PID.TID 0000.0001) %MON surfExpan_theta_mean         =  -5.0772935451332E-07
(PID.TID 0000.0001) %MON surfExpan_salt_mean          =  -3.5265623422100E-09
(PID.TID 0000.0001) // =======================================================
(PID.TID 0000.0001) // End MONITOR dynamic field statistics
(PID.TID 0000.0001) // =======================================================
 cg2d: Sum(rhs),rhsMax =   9.91545459125557E-01  5.66719975909430E-02
 cg2d: Sum(rhs),rhsMax =   9.35130348774283E-01  5.65158620082694E-02
(PID.TID 0000.0001)      cg2d_init_res =   1.98418681115367E-01
(PID.TID 0000.0001)      cg2d_iters(min,last) =      -1      99
(PID.TID 0000.0001)      cg2d_last_res =   6.51928837407696E-06
(PID.TID 0000.0001) // =======================================================
(PID.TID 0000.0001) // Begin MONITOR dynamic field statistics
(PID.TID 0000.0001) // =======================================================
(PID.TID 0000.0001) %MON time_tsnumber                =                    32
(PID.TID 0000.0001) %MON time_secondsf                =   1.1520000000000E+05
(PID.TID 0000.0001) %MON dynstat_eta_max              =   1.0940526332745E+00
(PID.TID 0000.0001) %MON dynstat_eta_min              =  -2.7923726258297E+00
(PID.TID 0000.0001) %MON dynstat_eta_mean             =  -4.7329855263834E-04
(PID.TID 0000.0001) %MON dynstat_eta_sd               =   6.7838655292163E-01
(PID.TID 0000.0001) %MON dynstat_eta_del2             =   8.9869966219277E-05
(PID.TID 0000.0001) %MON dynstat_uvel_max             =   8.8553605742643E-01
(PID.TID 0000.0001) %MON dynstat_uvel_min             =  -1.3442063449692E+00
(PID.TID 0000.0001) %MON dynstat_uvel_mean            =   7.4263612300742E-04
(PID.TID 0000.0001) %MON dynstat_uvel_sd              =   2.2533587296951E-02
(PID.TID 0000.0001) %MON dynstat_uvel_del2            =   1.7596947225908E-05
(PID.TID 0000.0001) %MON dynstat_vvel_max             =   1.6513940514952E+00
(PID.TID 0000.0001) %MON dynstat_vvel_min             =  -9.3484052328111E-01
(PID.TID 0000.0001) %MON dynstat_vvel_mean            =   1.2591231673292E-03
(PID.TID 0000.0001) %MON dynstat_vvel_sd              =   2.3712432877252E-02
(PID.TID 0000.0001) %MON dynstat_vvel_del2            =   1.7046135318365E-05
(PID.TID 0000.0001) %MON dynstat_wvel_max             =   5.1898229477835E-03
(PID.TID 0000.0001) %MON dynstat_wvel_min             =  -3.8407113927104E-03
(PID.TID 0000.0001) %MON dynstat_wvel_mean            =   5.0634498690386E-08
(PID.TID 0000.0001) %MON dynstat_wvel_sd              =   3.3493749802655E-05
(PID.TID 0000.0001) %MON dynstat_wvel_del2            =   5.9697481089424E-08
(PID.TID 0000.0001) %MON dynstat_theta_max            =   3.2696553512470E+01
(PID.TID 0000.0001) %MON dynstat_theta_min            =  -2.0421044269337E+00
(PID.TID 0000.0001) %MON dynstat_theta_mean           =   3.5906896477820E+00
(PID.TID 0000.0001) %MON dynstat_theta_sd             =   4.4370246992065E+00
(PID.TID 0000.0001) %MON dynstat_theta_del2           =   1.0668535158887E-04
(PID.TID 0000.0001) %MON dynstat_salt_max             =   4.0711527944169E+01
(PID.TID 0000.0001) %MON dynstat_salt_min             =   1.8925239860896E+01
(PID.TID 0000.0001) %MON dynstat_salt_mean            =   3.4725637574143E+01
(PID.TID 0000.0001) %MON dynstat_salt_sd              =   3.7388216216930E-01
(PID.TID 0000.0001) %MON dynstat_salt_del2            =   2.5732160035042E-05
(PID.TID 0000.0001) %MON dynstat_sst_max              =   3.2696553512470E+01
(PID.TID 0000.0001) %MON dynstat_sst_min              =  -1.9394090030988E+00
(PID.TID 0000.0001) %MON dynstat_sst_mean             =   1.8484392362575E+01
(PID.TID 0000.0001) %MON dynstat_sst_sd               =   1.0142314794279E+01
(PID.TID 0000.0001) %MON dynstat_sst_del2             =   8.7581256954127E-04
(PID.TID 0000.0001) %MON dynstat_sss_max              =   3.9038451277538E+01
(PID.TID 0000.0001) %MON dynstat_sss_min              =   1.8925239860896E+01
(PID.TID 0000.0001) %MON dynstat_sss_mean             =   3.4634936568858E+01
(PID.TID 0000.0001) %MON dynstat_sss_sd               =   9.6939951591180E-01
(PID.TID 0000.0001) %MON dynstat_sss_del2             =   4.6882798215326E-04
(PID.TID 0000.0001) %MON forcing_qnet_max             =   1.8347756347656E+03
(PID.TID 0000.0001) %MON forcing_qnet_min             =  -1.4589577636719E+03
(PID.TID 0000.0001) %MON forcing_qnet_mean            =   2.0081493748136E+01
(PID.TID 0000.0001) %MON forcing_qnet_sd              =   1.7072757536763E+02
(PID.TID 0000.0001) %MON forcing_qnet_del2            =   5.0097364893897E-01
(PID.TID 0000.0001) %MON forcing_qsw_max              =   0.0000000000000E+00
(PID.TID 0000.0001) %MON forcing_qsw_min              =  -4.3950588176661E+02
(PID.TID 0000.0001) %MON forcing_qsw_mean             =  -6.5629090039291E+01
(PID.TID 0000.0001) %MON forcing_qsw_sd               =   1.0232912307460E+02
(PID.TID 0000.0001) %MON forcing_qsw_del2             =   1.7631390781619E-01
(PID.TID 0000.0001) %MON forcing_empmr_max            =   6.5504289232194E-03
(PID.TID 0000.0001) %MON forcing_empmr_min            =  -7.1757376194000E-02
(PID.TID 0000.0001) %MON forcing_empmr_mean           =  -8.1615254744121E-06
(PID.TID 0000.0001) %MON forcing_empmr_sd             =   3.4265017944040E-04
(PID.TID 0000.0001) %MON forcing_empmr_del2           =   2.7805085749214E-06
(PID.TID 0000.0001) %MON forcing_fu_max               =   1.0728240609169E+00
(PID.TID 0000.0001) %MON forcing_fu_min               =  -9.5471143722534E-01
(PID.TID 0000.0001) %MON forcing_fu_mean              =   1.3092939959731E-02
(PID.TID 0000.0001) %MON forcing_fu_sd                =   1.0912382150263E-01
(PID.TID 0000.0001) %MON forcing_fu_del2              =   1.5599076274530E-04
(PID.TID 0000.0001) %MON forcing_fv_max               =   7.3159459233284E-01
(PID.TID 0000.0001) %MON forcing_fv_min               =  -7.0615940820578E-01
(PID.TID 0000.0001) %MON forcing_fv_mean              =  -6.8127791056294E-03
(PID.TID 0000.0001) %MON forcing_fv_sd                =   1.0564088611073E-01
(PID.TID 0000.0001) %MON forcing_fv_del2              =   1.2520072072409E-04
(PID.TID 0000.0001) %MON trAdv_CFL_u_max              =   8.5831442654414E-02
(PID.TID 0000.0001) %MON trAdv_CFL_v_max              =   1.1346308045633E-01
(PID.TID 0000.0001) %MON trAdv_CFL_w_max              =   7.0830319637874E-01
(PID.TID 0000.0001) %MON advcfl_uvel_max              =   8.8959121350089E-02
(PID.TID 0000.0001) %MON advcfl_vvel_max              =   1.1725495021845E-01
(PID.TID 0000.0001) %MON advcfl_wvel_max              =   7.4521232803876E-01
(PID.TID 0000.0001) %MON advcfl_W_hf_max              =   7.8663628884442E-01
(PID.TID 0000.0001) %MON pe_b_mean                    =   6.0535900809897E-04
(PID.TID 0000.0001) %MON ke_max                       =   1.4389766076271E+00
(PID.TID 0000.0001) %MON ke_mean                      =   5.1699841582045E-04
(PID.TID 0000.0001) %MON ke_vol                       =   1.3349976972693E+18
(PID.TID 0000.0001) %MON vort_r_min                   =  -3.8151864593382E-05
(PID.TID 0000.0001) %MON vort_r_max                   =   4.7766835249614E-05
(PID.TID 0000.0001) %MON vort_a_mean                  =  -1.9727864647440E-05
(PID.TID 0000.0001) %MON vort_a_sd                    =   7.4543285434402E-05
(PID.TID 0000.0001) %MON vort_p_mean                  =  -2.1760531919457E-05
(PID.TID 0000.0001) %MON vort_p_sd                    =   9.7242420635550E-05
(PID.TID 0000.0001) %MON surfExpan_theta_mean         =  -2.1689312851895E-07
(PID.TID 0000.0001) %MON surfExpan_salt_mean          =   6.7712658100596E-09
(PID.TID 0000.0001) // =======================================================
(PID.TID 0000.0001) // End MONITOR dynamic field statistics
(PID.TID 0000.0001) // =======================================================
 cg2d: Sum(rhs),rhsMax =   8.76947600171874E-01  5.63651972847482E-02
 cg2d: Sum(rhs),rhsMax =   8.18285191856983E-01  5.62238583861987E-02
(PID.TID 0000.0001)      cg2d_init_res =   1.91566791093087E-01
(PID.TID 0000.0001)      cg2d_iters(min,last) =      -1     101
(PID.TID 0000.0001)      cg2d_last_res =   6.93140878005299E-06
(PID.TID 0000.0001) // =======================================================
(PID.TID 0000.0001) // Begin MONITOR dynamic field statistics
(PID.TID 0000.0001) // =======================================================
(PID.TID 0000.0001) %MON time_tsnumber                =                    34
(PID.TID 0000.0001) %MON time_secondsf                =   1.2240000000000E+05
(PID.TID 0000.0001) %MON dynstat_eta_max              =   1.0928643972730E+00
(PID.TID 0000.0001) %MON dynstat_eta_min              =  -2.7621901699067E+00
(PID.TID 0000.0001) %MON dynstat_eta_mean             =  -4.1415958476691E-04
(PID.TID 0000.0001) %MON dynstat_eta_sd               =   6.7660949203700E-01
(PID.TID 0000.0001) %MON dynstat_eta_del2             =   8.8779715357271E-05
(PID.TID 0000.0001) %MON dynstat_uvel_max             =   7.8879152439336E-01
(PID.TID 0000.0001) %MON dynstat_uvel_min             =  -1.3392437250666E+00
(PID.TID 0000.0001) %MON dynstat_uvel_mean            =   7.4251719180396E-04
(PID.TID 0000.0001) %MON dynstat_uvel_sd              =   2.2520300607351E-02
(PID.TID 0000.0001) %MON dynstat_uvel_del2            =   1.7289988997539E-05
(PID.TID 0000.0001) %MON dynstat_vvel_max             =   1.6686046034920E+00
(PID.TID 0000.0001) %MON dynstat_vvel_min             =  -9.3318945897335E-01
(PID.TID 0000.0001) %MON dynstat_vvel_mean            =   1.2074380359204E-03
(PID.TID 0000.0001) %MON dynstat_vvel_sd              =   2.3622226960356E-02
(PID.TID 0000.0001) %MON dynstat_vvel_del2            =   1.6856926979692E-05
(PID.TID 0000.0001) %MON dynstat_wvel_max             =   4.8845891814272E-03
(PID.TID 0000.0001) %MON dynstat_wvel_min             =  -4.1224872361354E-03
(PID.TID 0000.0001) %MON dynstat_wvel_mean            =   5.2394041505145E-08
(PID.TID 0000.0001) %MON dynstat_wvel_sd              =   3.2856819707495E-05
(PID.TID 0000.0001) %MON dynstat_wvel_del2            =   5.7399551060011E-08
(PID.TID 0000.0001) %MON dynstat_theta_max            =   3.2700401029048E+01
(PID.TID 0000.0001) %MON dynstat_theta_min            =  -2.0420404015376E+00
(PID.TID 0000.0001) %MON dynstat_theta_mean           =   3.5906784728160E+00
(PID.TID 0000.0001) %MON dynstat_theta_sd             =   4.4369947810861E+00
(PID.TID 0000.0001) %MON dynstat_theta_del2           =   1.0658826431466E-04
(PID.TID 0000.0001) %MON dynstat_salt_max             =   4.0711528850523E+01
(PID.TID 0000.0001) %MON dynstat_salt_min             =   1.8385766916915E+01
(PID.TID 0000.0001) %MON dynstat_salt_mean            =   3.4725621444629E+01
(PID.TID 0000.0001) %MON dynstat_salt_sd              =   3.7383724471035E-01
(PID.TID 0000.0001) %MON dynstat_salt_del2            =   2.5772133350728E-05
(PID.TID 0000.0001) %MON dynstat_sst_max              =   3.2700401029048E+01
(PID.TID 0000.0001) %MON dynstat_sst_min              =  -1.9384106906797E+00
(PID.TID 0000.0001) %MON dynstat_sst_mean             =   1.8481791497262E+01
(PID.TID 0000.0001) %MON dynstat_sst_sd               =   1.0143981202526E+01
(PID.TID 0000.0001) %MON dynstat_sst_del2             =   8.7497923075506E-04
(PID.TID 0000.0001) %MON dynstat_sss_max              =   3.9001996890427E+01
(PID.TID 0000.0001) %MON dynstat_sss_min              =   1.8385766916915E+01
(PID.TID 0000.0001) %MON dynstat_sss_mean             =   3.4633831852098E+01
(PID.TID 0000.0001) %MON dynstat_sss_sd               =   9.6826784008779E-01
(PID.TID 0000.0001) %MON dynstat_sss_del2             =   4.7833920535683E-04
(PID.TID 0000.0001) %MON forcing_qnet_max             =   1.6132664794922E+03
(PID.TID 0000.0001) %MON forcing_qnet_min             =  -1.7246351749498E+03
(PID.TID 0000.0001) %MON forcing_qnet_mean            =   2.6092523970479E+01
(PID.TID 0000.0001) %MON forcing_qnet_sd              =   1.7024862776926E+02
(PID.TID 0000.0001) %MON forcing_qnet_del2            =   4.7604371785446E-01
(PID.TID 0000.0001) %MON forcing_qsw_max              =   0.0000000000000E+00
(PID.TID 0000.0001) %MON forcing_qsw_min              =  -4.2845464323326E+02
(PID.TID 0000.0001) %MON forcing_qsw_mean             =  -6.2652423978771E+01
(PID.TID 0000.0001) %MON forcing_qsw_sd               =   1.0225217003439E+02
(PID.TID 0000.0001) %MON forcing_qsw_del2             =   1.7411722387378E-01
(PID.TID 0000.0001) %MON forcing_empmr_max            =   4.8082140274346E-03
(PID.TID 0000.0001) %MON forcing_empmr_min            =  -7.6273761689663E-02
(PID.TID 0000.0001) %MON forcing_empmr_mean           =  -8.4866401372609E-06
(PID.TID 0000.0001) %MON forcing_empmr_sd             =   3.7596219172379E-04
(PID.TID 0000.0001) %MON forcing_empmr_del2           =   3.2623833438347E-06
(PID.TID 0000.0001) %MON forcing_fu_max               =   1.0730617046356E+00
(PID.TID 0000.0001) %MON forcing_fu_min               =  -9.3850895762444E-01
(PID.TID 0000.0001) %MON forcing_fu_mean              =   1.3228106132755E-02
(PID.TID 0000.0001) %MON forcing_fu_sd                =   1.0864941007915E-01
(PID.TID 0000.0001) %MON forcing_fu_del2              =   1.5460436948726E-04
(PID.TID 0000.0001) %MON forcing_fv_max               =   7.2273203730583E-01
(PID.TID 0000.0001) %MON forcing_fv_min               =  -6.9572002177923E-01
(PID.TID 0000.0001) %MON forcing_fv_mean              =  -7.1144660066212E-03
(PID.TID 0000.0001) %MON forcing_fv_sd                =   1.0546232546763E-01
(PID.TID 0000.0001) %MON forcing_fv_del2              =   1.2387420874336E-04
(PID.TID 0000.0001) %MON trAdv_CFL_u_max              =   8.4314156806637E-02
(PID.TID 0000.0001) %MON trAdv_CFL_v_max              =   1.1467653093996E-01
(PID.TID 0000.0001) %MON trAdv_CFL_w_max              =   6.6572777881688E-01
(PID.TID 0000.0001) %MON advcfl_uvel_max              =   8.8630696843108E-02
(PID.TID 0000.0001) %MON advcfl_vvel_max              =   1.1847696165526E-01
(PID.TID 0000.0001) %MON advcfl_wvel_max              =   7.0085951623278E-01
(PID.TID 0000.0001) %MON advcfl_W_hf_max              =   7.3762794785635E-01
(PID.TID 0000.0001) %MON pe_b_mean                    =   6.0219156062303E-04
(PID.TID 0000.0001) %MON ke_max                       =   1.4608289039899E+00
(PID.TID 0000.0001) %MON ke_mean                      =   5.1458912403075E-04
(PID.TID 0000.0001) %MON ke_vol                       =   1.3349977180347E+18
(PID.TID 0000.0001) %MON vort_r_min                   =  -3.7700173268155E-05
(PID.TID 0000.0001) %MON vort_r_max                   =   4.8194783863778E-05
(PID.TID 0000.0001) %MON vort_a_mean                  =  -1.9727864647440E-05
(PID.TID 0000.0001) %MON vort_a_sd                    =   7.4543266924344E-05
(PID.TID 0000.0001) %MON vort_p_mean                  =  -2.1760531888372E-05
(PID.TID 0000.0001) %MON vort_p_sd                    =   9.7242513094804E-05
(PID.TID 0000.0001) %MON surfExpan_theta_mean         =  -6.1988377959264E-08
(PID.TID 0000.0001) %MON surfExpan_salt_mean          =   1.5314664593607E-08
(PID.TID 0000.0001) // =======================================================
(PID.TID 0000.0001) // End MONITOR dynamic field statistics
(PID.TID 0000.0001) // =======================================================
 cg2d: Sum(rhs),rhsMax =   7.58096109501329E-01  5.60883481403027E-02
 cg2d: Sum(rhs),rhsMax =   6.97455088287227E-01  5.59526821025464E-02
(PID.TID 0000.0001)      cg2d_init_res =   1.84195435502893E-01
(PID.TID 0000.0001)      cg2d_iters(min,last) =      -1      99
(PID.TID 0000.0001)      cg2d_last_res =   6.83833992188055E-06
(PID.TID 0000.0001) // =======================================================
(PID.TID 0000.0001) // Begin MONITOR dynamic field statistics
(PID.TID 0000.0001) // =======================================================
(PID.TID 0000.0001) %MON time_tsnumber                =                    36
(PID.TID 0000.0001) %MON time_secondsf                =   1.2960000000000E+05
(PID.TID 0000.0001) %MON dynstat_eta_max              =   1.0911290522289E+00
(PID.TID 0000.0001) %MON dynstat_eta_min              =  -2.7107256442345E+00
(PID.TID 0000.0001) %MON dynstat_eta_mean             =  -3.5300371146040E-04
(PID.TID 0000.0001) %MON dynstat_eta_sd               =   6.7478464104109E-01
(PID.TID 0000.0001) %MON dynstat_eta_del2             =   8.7766918005242E-05
(PID.TID 0000.0001) %MON dynstat_uvel_max             =   7.2769787903502E-01
(PID.TID 0000.0001) %MON dynstat_uvel_min             =  -1.3308997365833E+00
(PID.TID 0000.0001) %MON dynstat_uvel_mean            =   7.4929183077627E-04
(PID.TID 0000.0001) %MON dynstat_uvel_sd              =   2.2478991503034E-02
(PID.TID 0000.0001) %MON dynstat_uvel_del2            =   1.6942788328703E-05
(PID.TID 0000.0001) %MON dynstat_vvel_max             =   1.6849451300975E+00
(PID.TID 0000.0001) %MON dynstat_vvel_min             =  -9.3090031542801E-01
(PID.TID 0000.0001) %MON dynstat_vvel_mean            =   1.1610018720760E-03
(PID.TID 0000.0001) %MON dynstat_vvel_sd              =   2.3529448491038E-02
(PID.TID 0000.0001) %MON dynstat_vvel_del2            =   1.6641673842298E-05
(PID.TID 0000.0001) %MON dynstat_wvel_max             =   4.4162325542955E-03
(PID.TID 0000.0001) %MON dynstat_wvel_min             =  -3.8346886104721E-03
(PID.TID 0000.0001) %MON dynstat_wvel_mean            =   4.9117838164653E-08
(PID.TID 0000.0001) %MON dynstat_wvel_sd              =   3.2245999149610E-05
(PID.TID 0000.0001) %MON dynstat_wvel_del2            =   5.4840027462579E-08
(PID.TID 0000.0001) %MON dynstat_theta_max            =   3.2694344174060E+01
(PID.TID 0000.0001) %MON dynstat_theta_min            =  -2.0419791434648E+00
(PID.TID 0000.0001) %MON dynstat_theta_mean           =   3.5906657257342E+00
(PID.TID 0000.0001) %MON dynstat_theta_sd             =   4.4369579477829E+00
(PID.TID 0000.0001) %MON dynstat_theta_del2           =   1.0650312520933E-04
(PID.TID 0000.0001) %MON dynstat_salt_max             =   4.0711529738207E+01
(PID.TID 0000.0001) %MON dynstat_salt_min             =   1.7848127298779E+01
(PID.TID 0000.0001) %MON dynstat_salt_mean            =   3.4725606582042E+01
(PID.TID 0000.0001) %MON dynstat_salt_sd              =   3.7379642456818E-01
(PID.TID 0000.0001) %MON dynstat_salt_del2            =   2.5854197329885E-05
(PID.TID 0000.0001) %MON dynstat_sst_max              =   3.2694344174060E+01
(PID.TID 0000.0001) %MON dynstat_sst_min              =  -1.9374641479544E+00
(PID.TID 0000.0001) %MON dynstat_sst_mean             =   1.8479112104367E+01
(PID.TID 0000.0001) %MON dynstat_sst_sd               =   1.0145617012900E+01
(PID.TID 0000.0001) %MON dynstat_sst_del2             =   8.7417469509893E-04
(PID.TID 0000.0001) %MON dynstat_sss_max              =   3.8966695054426E+01
(PID.TID 0000.0001) %MON dynstat_sss_min              =   1.7848127298779E+01
(PID.TID 0000.0001) %MON dynstat_sss_mean             =   3.4632942502529E+01
(PID.TID 0000.0001) %MON dynstat_sss_sd               =   9.6742510592557E-01
(PID.TID 0000.0001) %MON dynstat_sss_del2             =   4.9074834085715E-04
(PID.TID 0000.0001) %MON forcing_qnet_max             =   2.1065834960938E+03
(PID.TID 0000.0001) %MON forcing_qnet_min             =  -1.1277828785986E+03
(PID.TID 0000.0001) %MON forcing_qnet_mean            =   2.8985181469849E+01
(PID.TID 0000.0001) %MON forcing_qnet_sd              =   1.7083288527193E+02
(PID.TID 0000.0001) %MON forcing_qnet_del2            =   4.7636386547381E-01
(PID.TID 0000.0001) %MON forcing_qsw_max              =   0.0000000000000E+00
(PID.TID 0000.0001) %MON forcing_qsw_min              =  -4.3551116367189E+02
(PID.TID 0000.0001) %MON forcing_qsw_mean             =  -6.1039273395846E+01
(PID.TID 0000.0001) %MON forcing_qsw_sd               =   1.0275281651751E+02
(PID.TID 0000.0001) %MON forcing_qsw_del2             =   1.7350244260742E-01
(PID.TID 0000.0001) %MON forcing_empmr_max            =   3.3388943411410E-03
(PID.TID 0000.0001) %MON forcing_empmr_min            =  -8.7987951934338E-02
(PID.TID 0000.0001) %MON forcing_empmr_mean           =  -8.7728843629524E-06
(PID.TID 0000.0001) %MON forcing_empmr_sd             =   3.9713953934740E-04
(PID.TID 0000.0001) %MON forcing_empmr_del2           =   3.5575528769419E-06
(PID.TID 0000.0001) %MON forcing_fu_max               =   1.0679977536201E+00
(PID.TID 0000.0001) %MON forcing_fu_min               =  -9.2324963212013E-01
(PID.TID 0000.0001) %MON forcing_fu_mean              =   1.3280228317293E-02
(PID.TID 0000.0001) %MON forcing_fu_sd                =   1.0812164423376E-01
(PID.TID 0000.0001) %MON forcing_fu_del2              =   1.5346701617236E-04
(PID.TID 0000.0001) %MON forcing_fv_max               =   7.2401690483093E-01
(PID.TID 0000.0001) %MON forcing_fv_min               =  -6.7674207406324E-01
(PID.TID 0000.0001) %MON forcing_fv_mean              =  -7.4192015761020E-03
(PID.TID 0000.0001) %MON forcing_fv_sd                =   1.0528801813810E-01
(PID.TID 0000.0001) %MON forcing_fv_del2              =   1.2313157657541E-04
(PID.TID 0000.0001) %MON trAdv_CFL_u_max              =   8.3768165776338E-02
(PID.TID 0000.0001) %MON trAdv_CFL_v_max              =   1.1582466634434E-01
(PID.TID 0000.0001) %MON trAdv_CFL_w_max              =   5.9306710824534E-01
(PID.TID 0000.0001) %MON advcfl_uvel_max              =   8.8078494506903E-02
(PID.TID 0000.0001) %MON advcfl_vvel_max              =   1.1963719814269E-01
(PID.TID 0000.0001) %MON advcfl_wvel_max              =   6.2516576777167E-01
(PID.TID 0000.0001) %MON advcfl_W_hf_max              =   6.5661530949182E-01
(PID.TID 0000.0001) %MON pe_b_mean                    =   5.9894758692989E-04
(PID.TID 0000.0001) %MON ke_max                       =   1.4819826306044E+00
(PID.TID 0000.0001) %MON ke_mean                      =   5.1153509993575E-04
(PID.TID 0000.0001) %MON ke_vol                       =   1.3349977395708E+18
(PID.TID 0000.0001) %MON vort_r_min                   =  -3.7178346358855E-05
(PID.TID 0000.0001) %MON vort_r_max                   =   4.8608886861548E-05
(PID.TID 0000.0001) %MON vort_a_mean                  =  -1.9727864647440E-05
(PID.TID 0000.0001) %MON vort_a_sd                    =   7.4543252727137E-05
(PID.TID 0000.0001) %MON vort_p_mean                  =  -2.1760531886936E-05
(PID.TID 0000.0001) %MON vort_p_sd                    =   9.7242583192594E-05
(PID.TID 0000.0001) %MON surfExpan_theta_mean         =  -2.4352326885649E-08
(PID.TID 0000.0001) %MON surfExpan_salt_mean          =   2.6295681481627E-08
(PID.TID 0000.0001) // =======================================================
(PID.TID 0000.0001) // End MONITOR dynamic field statistics
(PID.TID 0000.0001) // =======================================================
 cg2d: Sum(rhs),rhsMax =   6.35735705147633E-01  5.58098478198695E-02
 cg2d: Sum(rhs),rhsMax =   5.71588932502691E-01  5.56543643952292E-02
(PID.TID 0000.0001)      cg2d_init_res =   1.77601520437895E-01
(PID.TID 0000.0001)      cg2d_iters(min,last) =      -1      98
(PID.TID 0000.0001)      cg2d_last_res =   6.30071407987730E-06
(PID.TID 0000.0001) // =======================================================
(PID.TID 0000.0001) // Begin MONITOR dynamic field statistics
(PID.TID 0000.0001) // =======================================================
(PID.TID 0000.0001) %MON time_tsnumber                =                    38
(PID.TID 0000.0001) %MON time_secondsf                =   1.3680000000000E+05
(PID.TID 0000.0001) %MON dynstat_eta_max              =   1.0892133742692E+00
(PID.TID 0000.0001) %MON dynstat_eta_min              =  -2.6411230754986E+00
(PID.TID 0000.0001) %MON dynstat_eta_mean             =  -2.8929893550359E-04
(PID.TID 0000.0001) %MON dynstat_eta_sd               =   6.7296450885861E-01
(PID.TID 0000.0001) %MON dynstat_eta_del2             =   8.6852057823823E-05
(PID.TID 0000.0001) %MON dynstat_uvel_max             =   7.5060685164134E-01
(PID.TID 0000.0001) %MON dynstat_uvel_min             =  -1.3195880988105E+00
(PID.TID 0000.0001) %MON dynstat_uvel_mean            =   7.5991005713906E-04
(PID.TID 0000.0001) %MON dynstat_uvel_sd              =   2.2410458945025E-02
(PID.TID 0000.0001) %MON dynstat_uvel_del2            =   1.6576181825655E-05
(PID.TID 0000.0001) %MON dynstat_vvel_max             =   1.6988140331787E+00
(PID.TID 0000.0001) %MON dynstat_vvel_min             =  -9.2779428476251E-01
(PID.TID 0000.0001) %MON dynstat_vvel_mean            =   1.1191721123372E-03
(PID.TID 0000.0001) %MON dynstat_vvel_sd              =   2.3472028181288E-02
(PID.TID 0000.0001) %MON dynstat_vvel_del2            =   1.6403704602577E-05
(PID.TID 0000.0001) %MON dynstat_wvel_max             =   3.8411410836710E-03
(PID.TID 0000.0001) %MON dynstat_wvel_min             =  -3.0712262005569E-03
(PID.TID 0000.0001) %MON dynstat_wvel_mean            =   4.1958636089467E-08
(PID.TID 0000.0001) %MON dynstat_wvel_sd              =   3.1741516525743E-05
(PID.TID 0000.0001) %MON dynstat_wvel_del2            =   5.2180168906860E-08
(PID.TID 0000.0001) %MON dynstat_theta_max            =   3.2698773281372E+01
(PID.TID 0000.0001) %MON dynstat_theta_min            =  -2.0419236799987E+00
(PID.TID 0000.0001) %MON dynstat_theta_mean           =   3.5906507078304E+00
(PID.TID 0000.0001) %MON dynstat_theta_sd             =   4.4369109307455E+00
(PID.TID 0000.0001) %MON dynstat_theta_del2           =   1.0642289181627E-04
(PID.TID 0000.0001) %MON dynstat_salt_max             =   4.0711530684607E+01
(PID.TID 0000.0001) %MON dynstat_salt_min             =   1.7322091597404E+01
(PID.TID 0000.0001) %MON dynstat_salt_mean            =   3.4725592863058E+01
(PID.TID 0000.0001) %MON dynstat_salt_sd              =   3.7375925623780E-01
(PID.TID 0000.0001) %MON dynstat_salt_del2            =   2.5983240980426E-05
(PID.TID 0000.0001) %MON dynstat_sst_max              =   3.2698773281372E+01
(PID.TID 0000.0001) %MON dynstat_sst_min              =  -1.9365226788365E+00
(PID.TID 0000.0001) %MON dynstat_sst_mean             =   1.8476072552032E+01
(PID.TID 0000.0001) %MON dynstat_sst_sd               =   1.0146982955921E+01
(PID.TID 0000.0001) %MON dynstat_sst_del2             =   8.7355910928440E-04
(PID.TID 0000.0001) %MON dynstat_sss_max              =   3.8932490937974E+01
(PID.TID 0000.0001) %MON dynstat_sss_min              =   1.7322091597404E+01
(PID.TID 0000.0001) %MON dynstat_sss_mean             =   3.4632210809524E+01
(PID.TID 0000.0001) %MON dynstat_sss_sd               =   9.6680159473866E-01
(PID.TID 0000.0001) %MON dynstat_sss_del2             =   5.0624120868631E-04
(PID.TID 0000.0001) %MON forcing_qnet_max             =   3.0332873535156E+03
(PID.TID 0000.0001) %MON forcing_qnet_min             =  -1.1191168254692E+03
(PID.TID 0000.0001) %MON forcing_qnet_mean            =   3.4678137031545E+01
(PID.TID 0000.0001) %MON forcing_qnet_sd              =   1.7038433204929E+02
(PID.TID 0000.0001) %MON forcing_qnet_del2            =   5.0647253130624E-01
(PID.TID 0000.0001) %MON forcing_qsw_max              =   0.0000000000000E+00
(PID.TID 0000.0001) %MON forcing_qsw_min              =  -4.3961079321170E+02
(PID.TID 0000.0001) %MON forcing_qsw_mean             =  -5.7975007132961E+01
(PID.TID 0000.0001) %MON forcing_qsw_sd               =   1.0290066869661E+02
(PID.TID 0000.0001) %MON forcing_qsw_del2             =   1.7180078896062E-01
(PID.TID 0000.0001) %MON forcing_empmr_max            =   3.7220595404506E-03
(PID.TID 0000.0001) %MON forcing_empmr_min            =  -1.0272973030806E-01
(PID.TID 0000.0001) %MON forcing_empmr_mean           =  -9.2800584061238E-06
(PID.TID 0000.0001) %MON forcing_empmr_sd             =   4.2181484916396E-04
(PID.TID 0000.0001) %MON forcing_empmr_del2           =   3.9343614434153E-06
(PID.TID 0000.0001) %MON forcing_fu_max               =   1.0539684295654E+00
(PID.TID 0000.0001) %MON forcing_fu_min               =  -9.0902683138847E-01
(PID.TID 0000.0001) %MON forcing_fu_mean              =   1.3339399158141E-02
(PID.TID 0000.0001) %MON forcing_fu_sd                =   1.0767830561630E-01
(PID.TID 0000.0001) %MON forcing_fu_del2              =   1.5193821120095E-04
(PID.TID 0000.0001) %MON forcing_fv_max               =   7.7724522352218E-01
(PID.TID 0000.0001) %MON forcing_fv_min               =  -6.5126154049352E-01
(PID.TID 0000.0001) %MON forcing_fv_mean              =  -7.6884016230095E-03
(PID.TID 0000.0001) %MON forcing_fv_sd                =   1.0510464081318E-01
(PID.TID 0000.0001) %MON forcing_fv_del2              =   1.2188226811654E-04
(PID.TID 0000.0001) %MON trAdv_CFL_u_max              =   8.3028185942607E-02
(PID.TID 0000.0001) %MON trAdv_CFL_v_max              =   1.1679701085494E-01
(PID.TID 0000.0001) %MON trAdv_CFL_w_max              =   5.0474803019519E-01
(PID.TID 0000.0001) %MON advcfl_uvel_max              =   8.7329894144273E-02
(PID.TID 0000.0001) %MON advcfl_vvel_max              =   1.2062194042083E-01
(PID.TID 0000.0001) %MON advcfl_wvel_max              =   5.3316109927189E-01
(PID.TID 0000.0001) %MON advcfl_W_hf_max              =   5.5997997263128E-01
(PID.TID 0000.0001) %MON pe_b_mean                    =   5.9572073606819E-04
(PID.TID 0000.0001) %MON ke_max                       =   1.4998568854749E+00
(PID.TID 0000.0001) %MON ke_mean                      =   5.0871216243389E-04
(PID.TID 0000.0001) %MON ke_vol                       =   1.3349977617427E+18
(PID.TID 0000.0001) %MON vort_r_min                   =  -3.6597124675629E-05
(PID.TID 0000.0001) %MON vort_r_max                   =   4.8964612290812E-05
(PID.TID 0000.0001) %MON vort_a_mean                  =  -1.9727864647440E-05
(PID.TID 0000.0001) %MON vort_a_sd                    =   7.4543241269244E-05
(PID.TID 0000.0001) %MON vort_p_mean                  =  -2.1760531846462E-05
(PID.TID 0000.0001) %MON vort_p_sd                    =   9.7242612638598E-05
(PID.TID 0000.0001) %MON surfExpan_theta_mean         =  -7.7813685826321E-08
(PID.TID 0000.0001) %MON surfExpan_salt_mean          =   3.6002157577473E-08
(PID.TID 0000.0001) // =======================================================
(PID.TID 0000.0001) // End MONITOR dynamic field statistics
(PID.TID 0000.0001) // =======================================================
 cg2d: Sum(rhs),rhsMax =   5.05687498264132E-01  5.54781870153232E-02
 cg2d: Sum(rhs),rhsMax =   4.41482093299854E-01  5.52853660627451E-02
(PID.TID 0000.0001)      cg2d_init_res =   1.72402929422806E-01
(PID.TID 0000.0001)      cg2d_iters(min,last) =      -1      96
(PID.TID 0000.0001)      cg2d_last_res =   6.83574244582369E-06
(PID.TID 0000.0001) // =======================================================
(PID.TID 0000.0001) // Begin MONITOR dynamic field statistics
(PID.TID 0000.0001) // =======================================================
(PID.TID 0000.0001) %MON time_tsnumber                =                    40
(PID.TID 0000.0001) %MON time_secondsf                =   1.4400000000000E+05
(PID.TID 0000.0001) %MON dynstat_eta_max              =   1.0874339032076E+00
(PID.TID 0000.0001) %MON dynstat_eta_min              =  -2.5623940715440E+00
(PID.TID 0000.0001) %MON dynstat_eta_mean             =  -2.2344781778113E-04
(PID.TID 0000.0001) %MON dynstat_eta_sd               =   6.7118402111289E-01
(PID.TID 0000.0001) %MON dynstat_eta_del2             =   8.6027471633227E-05
(PID.TID 0000.0001) %MON dynstat_uvel_max             =   7.7258668003470E-01
(PID.TID 0000.0001) %MON dynstat_uvel_min             =  -1.3070166703918E+00
(PID.TID 0000.0001) %MON dynstat_uvel_mean            =   7.7291896557573E-04
(PID.TID 0000.0001) %MON dynstat_uvel_sd              =   2.2331774533701E-02
(PID.TID 0000.0001) %MON dynstat_uvel_del2            =   1.6208793735827E-05
(PID.TID 0000.0001) %MON dynstat_vvel_max             =   1.7104979236172E+00
(PID.TID 0000.0001) %MON dynstat_vvel_min             =  -9.2368938319083E-01
(PID.TID 0000.0001) %MON dynstat_vvel_mean            =   1.0836492059925E-03
(PID.TID 0000.0001) %MON dynstat_vvel_sd              =   2.3455668658186E-02
(PID.TID 0000.0001) %MON dynstat_vvel_del2            =   1.6150103058864E-05
(PID.TID 0000.0001) %MON dynstat_wvel_max             =   3.1987697454006E-03
(PID.TID 0000.0001) %MON dynstat_wvel_min             =  -3.0408597419796E-03
(PID.TID 0000.0001) %MON dynstat_wvel_mean            =   3.3620507439822E-08
(PID.TID 0000.0001) %MON dynstat_wvel_sd              =   3.1316261368258E-05
(PID.TID 0000.0001) %MON dynstat_wvel_del2            =   4.9543700115536E-08
(PID.TID 0000.0001) %MON dynstat_theta_max            =   3.2696347603369E+01
(PID.TID 0000.0001) %MON dynstat_theta_min            =  -2.0418746149510E+00
(PID.TID 0000.0001) %MON dynstat_theta_mean           =   3.5906344723248E+00
(PID.TID 0000.0001) %MON dynstat_theta_sd             =   4.4368583591257E+00
(PID.TID 0000.0001) %MON dynstat_theta_del2           =   1.0634151090204E-04
(PID.TID 0000.0001) %MON dynstat_salt_max             =   4.0711531765593E+01
(PID.TID 0000.0001) %MON dynstat_salt_min             =   1.6806966715045E+01
(PID.TID 0000.0001) %MON dynstat_salt_mean            =   3.4725580233286E+01
(PID.TID 0000.0001) %MON dynstat_salt_sd              =   3.7372548727748E-01
(PID.TID 0000.0001) %MON dynstat_salt_del2            =   2.6158467729538E-05
(PID.TID 0000.0001) %MON dynstat_sst_max              =   3.2696347603369E+01
(PID.TID 0000.0001) %MON dynstat_sst_min              =  -1.9355787803209E+00
(PID.TID 0000.0001) %MON dynstat_sst_mean             =   1.8472981410727E+01
(PID.TID 0000.0001) %MON dynstat_sst_sd               =   1.0148182962342E+01
(PID.TID 0000.0001) %MON dynstat_sst_del2             =   8.7298580548949E-04
(PID.TID 0000.0001) %MON dynstat_sss_max              =   3.8899355158413E+01
(PID.TID 0000.0001) %MON dynstat_sss_min              =   1.6806966715045E+01
(PID.TID 0000.0001) %MON dynstat_sss_mean             =   3.4631612358986E+01
(PID.TID 0000.0001) %MON dynstat_sss_sd               =   9.6637688209784E-01
(PID.TID 0000.0001) %MON dynstat_sss_del2             =   5.2450890742679E-04
(PID.TID 0000.0001) %MON forcing_qnet_max             =   2.7862093012367E+03
(PID.TID 0000.0001) %MON forcing_qnet_min             =  -1.1218278873808E+03
(PID.TID 0000.0001) %MON forcing_qnet_mean            =   3.6487401616070E+01
(PID.TID 0000.0001) %MON forcing_qnet_sd              =   1.7044092369594E+02
(PID.TID 0000.0001) %MON forcing_qnet_del2            =   5.0687086107685E-01
(PID.TID 0000.0001) %MON forcing_qsw_max              =   0.0000000000000E+00
(PID.TID 0000.0001) %MON forcing_qsw_min              =  -4.3682208615732E+02
(PID.TID 0000.0001) %MON forcing_qsw_mean             =  -5.6648759868404E+01
(PID.TID 0000.0001) %MON forcing_qsw_sd               =   1.0325366667658E+02
(PID.TID 0000.0001) %MON forcing_qsw_del2             =   1.7120631650807E-01
(PID.TID 0000.0001) %MON forcing_empmr_max            =   3.3528646454215E-03
(PID.TID 0000.0001) %MON forcing_empmr_min            =  -1.2068819999695E-01
(PID.TID 0000.0001) %MON forcing_empmr_mean           =  -9.2885406932656E-06
(PID.TID 0000.0001) %MON forcing_empmr_sd             =   4.5064436932782E-04
(PID.TID 0000.0001) %MON forcing_empmr_del2           =   4.2764789512557E-06
(PID.TID 0000.0001) %MON forcing_fu_max               =   1.0590757131577E+00
(PID.TID 0000.0001) %MON forcing_fu_min               =  -8.9656254649162E-01
(PID.TID 0000.0001) %MON forcing_fu_mean              =   1.3327550414831E-02
(PID.TID 0000.0001) %MON forcing_fu_sd                =   1.0730470021358E-01
(PID.TID 0000.0001) %MON forcing_fu_del2              =   1.5103044827650E-04
(PID.TID 0000.0001) %MON forcing_fv_max               =   7.4520179629326E-01
(PID.TID 0000.0001) %MON forcing_fv_min               =  -6.2484648352490E-01
(PID.TID 0000.0001) %MON forcing_fv_mean              =  -7.9226575526625E-03
(PID.TID 0000.0001) %MON forcing_fv_sd                =   1.0488025360246E-01
(PID.TID 0000.0001) %MON forcing_fv_del2              =   1.2089905626306E-04
(PID.TID 0000.0001) %MON trAdv_CFL_u_max              =   8.2205141975063E-02
(PID.TID 0000.0001) %MON trAdv_CFL_v_max              =   1.1761510719567E-01
(PID.TID 0000.0001) %MON trAdv_CFL_w_max              =   4.0903190567830E-01
(PID.TID 0000.0001) %MON advcfl_uvel_max              =   8.6497921262708E-02
(PID.TID 0000.0001) %MON advcfl_vvel_max              =   1.2145153889884E-01
(PID.TID 0000.0001) %MON advcfl_wvel_max              =   4.3345181203622E-01
(PID.TID 0000.0001) %MON advcfl_W_hf_max              =   4.5594666714583E-01
(PID.TID 0000.0001) %MON pe_b_mean                    =   5.9257260985065E-04
(PID.TID 0000.0001) %MON ke_max                       =   1.5153984136223E+00
(PID.TID 0000.0001) %MON ke_mean                      =   5.0661654287224E-04
(PID.TID 0000.0001) %MON ke_vol                       =   1.3349977853077E+18
(PID.TID 0000.0001) %MON vort_r_min                   =  -3.6017523062836E-05
(PID.TID 0000.0001) %MON vort_r_max                   =   4.9261165093602E-05
(PID.TID 0000.0001) %MON vort_a_mean                  =  -1.9727864647440E-05
(PID.TID 0000.0001) %MON vort_a_sd                    =   7.4543231936642E-05
(PID.TID 0000.0001) %MON vort_p_mean                  =  -2.1760531705926E-05
(PID.TID 0000.0001) %MON vort_p_sd                    =   9.7242623935673E-05
(PID.TID 0000.0001) %MON surfExpan_theta_mean         =  -1.7174784922082E-07
(PID.TID 0000.0001) %MON surfExpan_salt_mean          =   3.9145450341893E-08
(PID.TID 0000.0001) // =======================================================
(PID.TID 0000.0001) // End MONITOR dynamic field statistics
(PID.TID 0000.0001) // =======================================================
 cg2d: Sum(rhs),rhsMax =   3.74512489337390E-01  5.50710438479821E-02
 cg2d: Sum(rhs),rhsMax =   3.05776146020261E-01  5.48397423374820E-02
(PID.TID 0000.0001)      cg2d_init_res =   1.68145251086262E-01
(PID.TID 0000.0001)      cg2d_iters(min,last) =      -1      95
(PID.TID 0000.0001)      cg2d_last_res =   6.54191681022297E-06
(PID.TID 0000.0001) // =======================================================
(PID.TID 0000.0001) // Begin MONITOR dynamic field statistics
(PID.TID 0000.0001) // =======================================================
(PID.TID 0000.0001) %MON time_tsnumber                =                    42
(PID.TID 0000.0001) %MON time_secondsf                =   1.5120000000000E+05
(PID.TID 0000.0001) %MON dynstat_eta_max              =   1.0858623362892E+00
(PID.TID 0000.0001) %MON dynstat_eta_min              =  -2.4953543647526E+00
(PID.TID 0000.0001) %MON dynstat_eta_mean             =  -1.5476281732544E-04
(PID.TID 0000.0001) %MON dynstat_eta_sd               =   6.6944144938946E-01
(PID.TID 0000.0001) %MON dynstat_eta_del2             =   8.5257101499617E-05
(PID.TID 0000.0001) %MON dynstat_uvel_max             =   7.9702070171030E-01
(PID.TID 0000.0001) %MON dynstat_uvel_min             =  -1.2949032924192E+00
(PID.TID 0000.0001) %MON dynstat_uvel_mean            =   7.8891073268911E-04
(PID.TID 0000.0001) %MON dynstat_uvel_sd              =   2.2269111068637E-02
(PID.TID 0000.0001) %MON dynstat_uvel_del2            =   1.5854353556935E-05
(PID.TID 0000.0001) %MON dynstat_vvel_max             =   1.7204384281900E+00
(PID.TID 0000.0001) %MON dynstat_vvel_min             =  -9.1847651947381E-01
(PID.TID 0000.0001) %MON dynstat_vvel_mean            =   1.0570019879217E-03
(PID.TID 0000.0001) %MON dynstat_vvel_sd              =   2.3446639627214E-02
(PID.TID 0000.0001) %MON dynstat_vvel_del2            =   1.5897388782006E-05
(PID.TID 0000.0001) %MON dynstat_wvel_max             =   2.5134389535110E-03
(PID.TID 0000.0001) %MON dynstat_wvel_min             =  -2.7121103595045E-03
(PID.TID 0000.0001) %MON dynstat_wvel_mean            =   2.5512138469301E-08
(PID.TID 0000.0001) %MON dynstat_wvel_sd              =   3.0945537258999E-05
(PID.TID 0000.0001) %MON dynstat_wvel_del2            =   4.7091581066256E-08
(PID.TID 0000.0001) %MON dynstat_theta_max            =   3.2689237717463E+01
(PID.TID 0000.0001) %MON dynstat_theta_min            =  -2.0418311554864E+00
(PID.TID 0000.0001) %MON dynstat_theta_mean           =   3.5906166343442E+00
(PID.TID 0000.0001) %MON dynstat_theta_sd             =   4.4367983182295E+00
(PID.TID 0000.0001) %MON dynstat_theta_del2           =   1.0625581075079E-04
(PID.TID 0000.0001) %MON dynstat_salt_max             =   4.0711533023232E+01
(PID.TID 0000.0001) %MON dynstat_salt_min             =   1.6308715600234E+01
(PID.TID 0000.0001) %MON dynstat_salt_mean            =   3.4725568525797E+01
(PID.TID 0000.0001) %MON dynstat_salt_sd              =   3.7369480525973E-01
(PID.TID 0000.0001) %MON dynstat_salt_del2            =   2.6390746355847E-05
(PID.TID 0000.0001) %MON dynstat_sst_max              =   3.2684036278564E+01
(PID.TID 0000.0001) %MON dynstat_sst_min              =  -1.9346331181778E+00
(PID.TID 0000.0001) %MON dynstat_sst_mean             =   1.8469678223126E+01
(PID.TID 0000.0001) %MON dynstat_sst_sd               =   1.0149140152162E+01
(PID.TID 0000.0001) %MON dynstat_sst_del2             =   8.7221972571592E-04
(PID.TID 0000.0001) %MON dynstat_sss_max              =   3.8867251972126E+01
(PID.TID 0000.0001) %MON dynstat_sss_min              =   1.6308715600234E+01
(PID.TID 0000.0001) %MON dynstat_sss_mean             =   3.4631114418515E+01
(PID.TID 0000.0001) %MON dynstat_sss_sd               =   9.6613110498624E-01
(PID.TID 0000.0001) %MON dynstat_sss_del2             =   5.4617115994042E-04
(PID.TID 0000.0001) %MON forcing_qnet_max             =   1.2098720778844E+03
(PID.TID 0000.0001) %MON forcing_qnet_min             =  -1.4722399902344E+03
(PID.TID 0000.0001) %MON forcing_qnet_mean            =   3.9915794355873E+01
(PID.TID 0000.0001) %MON forcing_qnet_sd              =   1.6864886501714E+02
(PID.TID 0000.0001) %MON forcing_qnet_del2            =   4.7089407263612E-01
(PID.TID 0000.0001) %MON forcing_qsw_max              =   0.0000000000000E+00
(PID.TID 0000.0001) %MON forcing_qsw_min              =  -4.2781437660557E+02
(PID.TID 0000.0001) %MON forcing_qsw_mean             =  -5.4552447017466E+01
(PID.TID 0000.0001) %MON forcing_qsw_sd               =   1.0269337976507E+02
(PID.TID 0000.0001) %MON forcing_qsw_del2             =   1.6908760797603E-01
(PID.TID 0000.0001) %MON forcing_empmr_max            =   3.3638509921730E-03
(PID.TID 0000.0001) %MON forcing_empmr_min            =  -1.3605052232742E-01
(PID.TID 0000.0001) %MON forcing_empmr_mean           =  -9.9440276463242E-06
(PID.TID 0000.0001) %MON forcing_empmr_sd             =   4.7887284933799E-04
(PID.TID 0000.0001) %MON forcing_empmr_del2           =   4.6903057890520E-06
(PID.TID 0000.0001) %MON forcing_fu_max               =   1.0608926415443E+00
(PID.TID 0000.0001) %MON forcing_fu_min               =  -8.7594363093376E-01
(PID.TID 0000.0001) %MON forcing_fu_mean              =   1.3316980452242E-02
(PID.TID 0000.0001) %MON forcing_fu_sd                =   1.0684655986974E-01
(PID.TID 0000.0001) %MON forcing_fu_del2              =   1.5006865630866E-04
(PID.TID 0000.0001) %MON forcing_fv_max               =   7.8929567337036E-01
(PID.TID 0000.0001) %MON forcing_fv_min               =  -6.2157193774496E-01
(PID.TID 0000.0001) %MON forcing_fv_mean              =  -8.1322840486029E-03
(PID.TID 0000.0001) %MON forcing_fv_sd                =   1.0468674964126E-01
(PID.TID 0000.0001) %MON forcing_fv_del2              =   1.2009672757372E-04
(PID.TID 0000.0001) %MON trAdv_CFL_u_max              =   8.1411407394990E-02
(PID.TID 0000.0001) %MON trAdv_CFL_v_max              =   1.1831206880602E-01
(PID.TID 0000.0001) %MON trAdv_CFL_w_max              =   3.0894685184503E-01
(PID.TID 0000.0001) %MON advcfl_uvel_max              =   8.5696262004764E-02
(PID.TID 0000.0001) %MON advcfl_vvel_max              =   1.2215735067513E-01
(PID.TID 0000.0001) %MON advcfl_wvel_max              =   3.2919176266637E-01
(PID.TID 0000.0001) %MON advcfl_W_hf_max              =   3.4722875961502E-01
(PID.TID 0000.0001) %MON pe_b_mean                    =   5.8949960851296E-04
(PID.TID 0000.0001) %MON ke_max                       =   1.5292398917903E+00
(PID.TID 0000.0001) %MON ke_mean                      =   5.0504943308138E-04
(PID.TID 0000.0001) %MON ke_vol                       =   1.3349978090769E+18
(PID.TID 0000.0001) %MON vort_r_min                   =  -3.5509267470415E-05
(PID.TID 0000.0001) %MON vort_r_max                   =   4.9510671124347E-05
(PID.TID 0000.0001) %MON vort_a_mean                  =  -1.9727864647440E-05
(PID.TID 0000.0001) %MON vort_a_sd                    =   7.4543224963139E-05
(PID.TID 0000.0001) %MON vort_p_mean                  =  -2.1760531468845E-05
(PID.TID 0000.0001) %MON vort_p_sd                    =   9.7242631855755E-05
(PID.TID 0000.0001) %MON surfExpan_theta_mean         =  -2.9758831894064E-07
(PID.TID 0000.0001) %MON surfExpan_salt_mean          =   3.4646529412072E-08
(PID.TID 0000.0001) // =======================================================
(PID.TID 0000.0001) // End MONITOR dynamic field statistics
(PID.TID 0000.0001) // =======================================================
 cg2d: Sum(rhs),rhsMax =   2.38285609904216E-01  5.45955555702468E-02
 cg2d: Sum(rhs),rhsMax =   1.68611947532639E-01  5.43433571194660E-02
(PID.TID 0000.0001)      cg2d_init_res =   1.64293529881485E-01
(PID.TID 0000.0001)      cg2d_iters(min,last) =      -1      93
(PID.TID 0000.0001)      cg2d_last_res =   6.62053583605358E-06
(PID.TID 0000.0001) // =======================================================
(PID.TID 0000.0001) // Begin MONITOR dynamic field statistics
(PID.TID 0000.0001) // =======================================================
(PID.TID 0000.0001) %MON time_tsnumber                =                    44
(PID.TID 0000.0001) %MON time_secondsf                =   1.5840000000000E+05
(PID.TID 0000.0001) %MON dynstat_eta_max              =   1.0843315023463E+00
(PID.TID 0000.0001) %MON dynstat_eta_min              =  -2.4183339138036E+00
(PID.TID 0000.0001) %MON dynstat_eta_mean             =  -8.5339750580603E-05
(PID.TID 0000.0001) %MON dynstat_eta_sd               =   6.6773216994612E-01
(PID.TID 0000.0001) %MON dynstat_eta_del2             =   8.4516484036249E-05
(PID.TID 0000.0001) %MON dynstat_uvel_max             =   8.2031383796577E-01
(PID.TID 0000.0001) %MON dynstat_uvel_min             =  -1.2848434978074E+00
(PID.TID 0000.0001) %MON dynstat_uvel_mean            =   8.0978374458689E-04
(PID.TID 0000.0001) %MON dynstat_uvel_sd              =   2.2257748592011E-02
(PID.TID 0000.0001) %MON dynstat_uvel_del2            =   1.5528133389023E-05
(PID.TID 0000.0001) %MON dynstat_vvel_max             =   1.7282955095628E+00
(PID.TID 0000.0001) %MON dynstat_vvel_min             =  -9.1203159982187E-01
(PID.TID 0000.0001) %MON dynstat_vvel_mean            =   1.0415112669708E-03
(PID.TID 0000.0001) %MON dynstat_vvel_sd              =   2.3385367695484E-02
(PID.TID 0000.0001) %MON dynstat_vvel_del2            =   1.5651125044130E-05
(PID.TID 0000.0001) %MON dynstat_wvel_max             =   2.6514642212058E-03
(PID.TID 0000.0001) %MON dynstat_wvel_min             =  -2.4962954107183E-03
(PID.TID 0000.0001) %MON dynstat_wvel_mean            =   1.8788613228017E-08
(PID.TID 0000.0001) %MON dynstat_wvel_sd              =   3.0618425912470E-05
(PID.TID 0000.0001) %MON dynstat_wvel_del2            =   4.4929406917935E-08
(PID.TID 0000.0001) %MON dynstat_theta_max            =   3.2690181710513E+01
(PID.TID 0000.0001) %MON dynstat_theta_min            =  -2.0417926130548E+00
(PID.TID 0000.0001) %MON dynstat_theta_mean           =   3.5905980325000E+00
(PID.TID 0000.0001) %MON dynstat_theta_sd             =   4.4367339852323E+00
(PID.TID 0000.0001) %MON dynstat_theta_del2           =   1.0616737682454E-04
(PID.TID 0000.0001) %MON dynstat_salt_max             =   4.0711534450860E+01
(PID.TID 0000.0001) %MON dynstat_salt_min             =   1.5837212544402E+01
(PID.TID 0000.0001) %MON dynstat_salt_mean            =   3.4725557647333E+01
(PID.TID 0000.0001) %MON dynstat_salt_sd              =   3.7366697005965E-01
(PID.TID 0000.0001) %MON dynstat_salt_del2            =   2.6669745841822E-05
(PID.TID 0000.0001) %MON dynstat_sst_max              =   3.2665672562596E+01
(PID.TID 0000.0001) %MON dynstat_sst_min              =  -1.9336913557152E+00
(PID.TID 0000.0001) %MON dynstat_sst_mean             =   1.8466497498554E+01
(PID.TID 0000.0001) %MON dynstat_sst_sd               =   1.0150060708265E+01
(PID.TID 0000.0001) %MON dynstat_sst_del2             =   8.7194034830666E-04
(PID.TID 0000.0001) %MON dynstat_sss_max              =   3.8836150737623E+01
(PID.TID 0000.0001) %MON dynstat_sss_min              =   1.5837212544402E+01
(PID.TID 0000.0001) %MON dynstat_sss_mean             =   3.4630743688317E+01
(PID.TID 0000.0001) %MON dynstat_sss_sd               =   9.6608330436948E-01
(PID.TID 0000.0001) %MON dynstat_sss_del2             =   5.7019488765659E-04
(PID.TID 0000.0001) %MON forcing_qnet_max             =   3.2866843263831E+03
(PID.TID 0000.0001) %MON forcing_qnet_min             =  -1.9804113946432E+03
(PID.TID 0000.0001) %MON forcing_qnet_mean            =   4.0850304890808E+01
(PID.TID 0000.0001) %MON forcing_qnet_sd              =   1.6955678310238E+02
(PID.TID 0000.0001) %MON forcing_qnet_del2            =   5.6024617995873E-01
(PID.TID 0000.0001) %MON forcing_qsw_max              =   0.0000000000000E+00
(PID.TID 0000.0001) %MON forcing_qsw_min              =  -4.3560492882909E+02
(PID.TID 0000.0001) %MON forcing_qsw_mean             =  -5.3942504177899E+01
(PID.TID 0000.0001) %MON forcing_qsw_sd               =   1.0202568044844E+02
(PID.TID 0000.0001) %MON forcing_qsw_del2             =   1.6817201510416E-01
(PID.TID 0000.0001) %MON forcing_empmr_max            =   4.8075071536005E-03
(PID.TID 0000.0001) %MON forcing_empmr_min            =  -1.4200676977634E-01
(PID.TID 0000.0001) %MON forcing_empmr_mean           =  -1.0079628787438E-05
(PID.TID 0000.0001) %MON forcing_empmr_sd             =   4.9125344751606E-04
(PID.TID 0000.0001) %MON forcing_empmr_del2           =   4.9714623938907E-06
(PID.TID 0000.0001) %MON forcing_fu_max               =   1.0583427548409E+00
(PID.TID 0000.0001) %MON forcing_fu_min               =  -8.5706606507301E-01
(PID.TID 0000.0001) %MON forcing_fu_mean              =   1.3226697992478E-02
(PID.TID 0000.0001) %MON forcing_fu_sd                =   1.0630254672638E-01
(PID.TID 0000.0001) %MON forcing_fu_del2              =   1.4901441849509E-04
(PID.TID 0000.0001) %MON forcing_fv_max               =   7.8260937333107E-01
(PID.TID 0000.0001) %MON forcing_fv_min               =  -6.5546642771721E-01
(PID.TID 0000.0001) %MON forcing_fv_mean              =  -8.3155079020778E-03
(PID.TID 0000.0001) %MON forcing_fv_sd                =   1.0451467543516E-01
(PID.TID 0000.0001) %MON forcing_fv_del2              =   1.1948761812363E-04
(PID.TID 0000.0001) %MON trAdv_CFL_u_max              =   8.0751355498332E-02
(PID.TID 0000.0001) %MON trAdv_CFL_v_max              =   1.1886466200706E-01
(PID.TID 0000.0001) %MON trAdv_CFL_w_max              =   2.0851190462709E-01
(PID.TID 0000.0001) %MON advcfl_uvel_max              =   8.5030508199203E-02
(PID.TID 0000.0001) %MON advcfl_vvel_max              =   1.2271523186914E-01
(PID.TID 0000.0001) %MON advcfl_wvel_max              =   2.2456686414799E-01
(PID.TID 0000.0001) %MON advcfl_W_hf_max              =   2.3789442472643E-01
(PID.TID 0000.0001) %MON pe_b_mean                    =   5.8649308985379E-04
(PID.TID 0000.0001) %MON ke_max                       =   1.5398088434105E+00
(PID.TID 0000.0001) %MON ke_mean                      =   5.0342209938308E-04
(PID.TID 0000.0001) %MON ke_vol                       =   1.3349978337615E+18
(PID.TID 0000.0001) %MON vort_r_min                   =  -3.5108149213826E-05
(PID.TID 0000.0001) %MON vort_r_max                   =   4.9698498117150E-05
(PID.TID 0000.0001) %MON vort_a_mean                  =  -1.9727864647440E-05
(PID.TID 0000.0001) %MON vort_a_sd                    =   7.4543220784297E-05
(PID.TID 0000.0001) %MON vort_p_mean                  =  -2.1760531133473E-05
(PID.TID 0000.0001) %MON vort_p_sd                    =   9.7242614279873E-05
(PID.TID 0000.0001) %MON surfExpan_theta_mean         =  -4.2983426050664E-07
(PID.TID 0000.0001) %MON surfExpan_salt_mean          =   2.3797371452136E-08
(PID.TID 0000.0001) // =======================================================
(PID.TID 0000.0001) // End MONITOR dynamic field statistics
(PID.TID 0000.0001) // =======================================================
 cg2d: Sum(rhs),rhsMax =   1.01541251019364E-01  5.40900551812753E-02
 cg2d: Sum(rhs),rhsMax =   3.47684431269411E-02  5.38348425505329E-02
(PID.TID 0000.0001)      cg2d_init_res =   1.60794963739926E-01
(PID.TID 0000.0001)      cg2d_iters(min,last) =      -1      92
(PID.TID 0000.0001)      cg2d_last_res =   6.57586301113114E-06
(PID.TID 0000.0001) // =======================================================
(PID.TID 0000.0001) // Begin MONITOR dynamic field statistics
(PID.TID 0000.0001) // =======================================================
(PID.TID 0000.0001) %MON time_tsnumber                =                    46
(PID.TID 0000.0001) %MON time_secondsf                =   1.6560000000000E+05
(PID.TID 0000.0001) %MON dynstat_eta_max              =   1.0826832813580E+00
(PID.TID 0000.0001) %MON dynstat_eta_min              =  -2.3430702704454E+00
(PID.TID 0000.0001) %MON dynstat_eta_mean             =  -1.7597390386292E-05
(PID.TID 0000.0001) %MON dynstat_eta_sd               =   6.6606123292408E-01
(PID.TID 0000.0001) %MON dynstat_eta_del2             =   8.3800967913593E-05
(PID.TID 0000.0001) %MON dynstat_uvel_max             =   8.4263432987134E-01
(PID.TID 0000.0001) %MON dynstat_uvel_min             =  -1.2771790477596E+00
(PID.TID 0000.0001) %MON dynstat_uvel_mean            =   8.3844230792592E-04
(PID.TID 0000.0001) %MON dynstat_uvel_sd              =   2.2258789885712E-02
(PID.TID 0000.0001) %MON dynstat_uvel_del2            =   1.5241964009320E-05
(PID.TID 0000.0001) %MON dynstat_vvel_max             =   1.7343010034973E+00
(PID.TID 0000.0001) %MON dynstat_vvel_min             =  -9.0416248075109E-01
(PID.TID 0000.0001) %MON dynstat_vvel_mean            =   1.0373172160847E-03
(PID.TID 0000.0001) %MON dynstat_vvel_sd              =   2.3292323697379E-02
(PID.TID 0000.0001) %MON dynstat_vvel_del2            =   1.5408725384016E-05
(PID.TID 0000.0001) %MON dynstat_wvel_max             =   2.8274613751398E-03
(PID.TID 0000.0001) %MON dynstat_wvel_min             =  -2.4487750648747E-03
(PID.TID 0000.0001) %MON dynstat_wvel_mean            =   1.3983047388266E-08
(PID.TID 0000.0001) %MON dynstat_wvel_sd              =   3.0301537696033E-05
(PID.TID 0000.0001) %MON dynstat_wvel_del2            =   4.3018900370217E-08
(PID.TID 0000.0001) %MON dynstat_theta_max            =   3.2688389547790E+01
(PID.TID 0000.0001) %MON dynstat_theta_min            =  -2.0417582265999E+00
(PID.TID 0000.0001) %MON dynstat_theta_mean           =   3.5905787961100E+00
(PID.TID 0000.0001) %MON dynstat_theta_sd             =   4.4366647836134E+00
(PID.TID 0000.0001) %MON dynstat_theta_del2           =   1.0607162740696E-04
(PID.TID 0000.0001) %MON dynstat_salt_max             =   4.0711535993613E+01
(PID.TID 0000.0001) %MON dynstat_salt_min             =   1.5388105913714E+01
(PID.TID 0000.0001) %MON dynstat_salt_mean            =   3.4725547460632E+01
(PID.TID 0000.0001) %MON dynstat_salt_sd              =   3.7364140353744E-01
(PID.TID 0000.0001) %MON dynstat_salt_del2            =   2.6982021940076E-05
(PID.TID 0000.0001) %MON dynstat_sst_max              =   3.2641179978567E+01
(PID.TID 0000.0001) %MON dynstat_sst_min              =  -1.9327569063816E+00
(PID.TID 0000.0001) %MON dynstat_sst_mean             =   1.8463494193692E+01
(PID.TID 0000.0001) %MON dynstat_sst_sd               =   1.0150914116135E+01
(PID.TID 0000.0001) %MON dynstat_sst_del2             =   8.7133194956735E-04
(PID.TID 0000.0001) %MON dynstat_sss_max              =   3.8806030649434E+01
(PID.TID 0000.0001) %MON dynstat_sss_min              =   1.5388105913714E+01
(PID.TID 0000.0001) %MON dynstat_sss_mean             =   3.4630481441154E+01
(PID.TID 0000.0001) %MON dynstat_sss_sd               =   9.6617110541390E-01
(PID.TID 0000.0001) %MON dynstat_sss_del2             =   5.9543580387216E-04
(PID.TID 0000.0001) %MON forcing_qnet_max             =   3.1580156250000E+03
(PID.TID 0000.0001) %MON forcing_qnet_min             =  -1.7034417724609E+03
(PID.TID 0000.0001) %MON forcing_qnet_mean            =   4.1801066938229E+01
(PID.TID 0000.0001) %MON forcing_qnet_sd              =   1.6728083036238E+02
(PID.TID 0000.0001) %MON forcing_qnet_del2            =   5.2960798801013E-01
(PID.TID 0000.0001) %MON forcing_qsw_max              =   0.0000000000000E+00
(PID.TID 0000.0001) %MON forcing_qsw_min              =  -4.4235554244856E+02
(PID.TID 0000.0001) %MON forcing_qsw_mean             =  -5.3391013035475E+01
(PID.TID 0000.0001) %MON forcing_qsw_sd               =   9.9985370084863E+01
(PID.TID 0000.0001) %MON forcing_qsw_del2             =   1.6639000311198E-01
(PID.TID 0000.0001) %MON forcing_empmr_max            =   4.5806206762791E-03
(PID.TID 0000.0001) %MON forcing_empmr_min            =  -1.3866609334946E-01
(PID.TID 0000.0001) %MON forcing_empmr_mean           =  -9.6599646658629E-06
(PID.TID 0000.0001) %MON forcing_empmr_sd             =   4.8795380802514E-04
(PID.TID 0000.0001) %MON forcing_empmr_del2           =   5.0408926485018E-06
(PID.TID 0000.0001) %MON forcing_fu_max               =   1.0645464658737E+00
(PID.TID 0000.0001) %MON forcing_fu_min               =  -8.3706185221672E-01
(PID.TID 0000.0001) %MON forcing_fu_mean              =   1.3188600550688E-02
(PID.TID 0000.0001) %MON forcing_fu_sd                =   1.0606961470146E-01
(PID.TID 0000.0001) %MON forcing_fu_del2              =   1.4823849203153E-04
(PID.TID 0000.0001) %MON forcing_fv_max               =   7.8764885663986E-01
(PID.TID 0000.0001) %MON forcing_fv_min               =  -6.6668396197156E-01
(PID.TID 0000.0001) %MON forcing_fv_mean              =  -8.4452908355943E-03
(PID.TID 0000.0001) %MON forcing_fv_sd                =   1.0424898521165E-01
(PID.TID 0000.0001) %MON forcing_fv_del2              =   1.1853828364512E-04
(PID.TID 0000.0001) %MON trAdv_CFL_u_max              =   8.0247883065866E-02
(PID.TID 0000.0001) %MON trAdv_CFL_v_max              =   1.1928759753414E-01
(PID.TID 0000.0001) %MON trAdv_CFL_w_max              =   2.0345431207068E-01
(PID.TID 0000.0001) %MON advcfl_uvel_max              =   8.4523277486864E-02
(PID.TID 0000.0001) %MON advcfl_vvel_max              =   1.2314164365843E-01
(PID.TID 0000.0001) %MON advcfl_wvel_max              =   1.9882441173020E-01
(PID.TID 0000.0001) %MON advcfl_W_hf_max              =   1.9995017875835E-01
(PID.TID 0000.0001) %MON pe_b_mean                    =   5.8356145482574E-04
(PID.TID 0000.0001) %MON ke_max                       =   1.5470595387106E+00
(PID.TID 0000.0001) %MON ke_mean                      =   5.0136853911162E-04
(PID.TID 0000.0001) %MON ke_vol                       =   1.3349978585398E+18
(PID.TID 0000.0001) %MON vort_r_min                   =  -3.4815881599716E-05
(PID.TID 0000.0001) %MON vort_r_max                   =   4.9828004295546E-05
(PID.TID 0000.0001) %MON vort_a_mean                  =  -1.9727864647440E-05
(PID.TID 0000.0001) %MON vort_a_sd                    =   7.4543219381842E-05
(PID.TID 0000.0001) %MON vort_p_mean                  =  -2.1760530728292E-05
(PID.TID 0000.0001) %MON vort_p_sd                    =   9.7242552675621E-05
(PID.TID 0000.0001) %MON surfExpan_theta_mean         =  -5.4012818446999E-07
(PID.TID 0000.0001) %MON surfExpan_salt_mean          =   1.0803083650603E-08
(PID.TID 0000.0001) // =======================================================
(PID.TID 0000.0001) // End MONITOR dynamic field statistics
(PID.TID 0000.0001) // =======================================================
 cg2d: Sum(rhs),rhsMax =  -3.24587100584264E-02  5.35857533388230E-02
 cg2d: Sum(rhs),rhsMax =  -9.82391510032468E-02  5.33395031363295E-02
(PID.TID 0000.0001)      cg2d_init_res =   1.56877062547087E-01
(PID.TID 0000.0001)      cg2d_iters(min,last) =      -1      91
(PID.TID 0000.0001)      cg2d_last_res =   7.07999934191140E-06
(PID.TID 0000.0001) // =======================================================
(PID.TID 0000.0001) // Begin MONITOR dynamic field statistics
(PID.TID 0000.0001) // =======================================================
(PID.TID 0000.0001) %MON time_tsnumber                =                    48
(PID.TID 0000.0001) %MON time_secondsf                =   1.7280000000000E+05
(PID.TID 0000.0001) %MON dynstat_eta_max              =   1.0809779510450E+00
(PID.TID 0000.0001) %MON dynstat_eta_min              =  -2.2674438621813E+00
(PID.TID 0000.0001) %MON dynstat_eta_mean             =   4.9721889619974E-05
(PID.TID 0000.0001) %MON dynstat_eta_sd               =   6.6445464076853E-01
(PID.TID 0000.0001) %MON dynstat_eta_del2             =   8.3103549543786E-05
(PID.TID 0000.0001) %MON dynstat_uvel_max             =   8.6449900339159E-01
(PID.TID 0000.0001) %MON dynstat_uvel_min             =  -1.2712844140251E+00
(PID.TID 0000.0001) %MON dynstat_uvel_mean            =   8.7675060381571E-04
(PID.TID 0000.0001) %MON dynstat_uvel_sd              =   2.2245887218161E-02
(PID.TID 0000.0001) %MON dynstat_uvel_del2            =   1.4998559681164E-05
(PID.TID 0000.0001) %MON dynstat_vvel_max             =   1.7375941512260E+00
(PID.TID 0000.0001) %MON dynstat_vvel_min             =  -8.9480183371577E-01
(PID.TID 0000.0001) %MON dynstat_vvel_mean            =   1.0415919586806E-03
(PID.TID 0000.0001) %MON dynstat_vvel_sd              =   2.3198916461568E-02
(PID.TID 0000.0001) %MON dynstat_vvel_del2            =   1.5174698693473E-05
(PID.TID 0000.0001) %MON dynstat_wvel_max             =   2.5838609167110E-03
(PID.TID 0000.0001) %MON dynstat_wvel_min             =  -2.1881138885899E-03
(PID.TID 0000.0001) %MON dynstat_wvel_mean            =   1.1051533825211E-08
(PID.TID 0000.0001) %MON dynstat_wvel_sd              =   2.9961136271272E-05
(PID.TID 0000.0001) %MON dynstat_wvel_del2            =   4.1319305297106E-08
(PID.TID 0000.0001) %MON dynstat_theta_max            =   3.2683958558485E+01
(PID.TID 0000.0001) %MON dynstat_theta_min            =  -2.0417277791238E+00
(PID.TID 0000.0001) %MON dynstat_theta_mean           =   3.5905596223941E+00
(PID.TID 0000.0001) %MON dynstat_theta_sd             =   4.4365938213588E+00
(PID.TID 0000.0001) %MON dynstat_theta_del2           =   1.0596950862595E-04
(PID.TID 0000.0001) %MON dynstat_salt_max             =   4.0711537560104E+01
(PID.TID 0000.0001) %MON dynstat_salt_min             =   1.4964427544300E+01
(PID.TID 0000.0001) %MON dynstat_salt_mean            =   3.4725537938976E+01
(PID.TID 0000.0001) %MON dynstat_salt_sd              =   3.7361793015960E-01
(PID.TID 0000.0001) %MON dynstat_salt_del2            =   2.7303048788586E-05
(PID.TID 0000.0001) %MON dynstat_sst_max              =   3.2626160535237E+01
(PID.TID 0000.0001) %MON dynstat_sst_min              =  -1.9315931843068E+00
(PID.TID 0000.0001) %MON dynstat_sst_mean             =   1.8460672372171E+01
(PID.TID 0000.0001) %MON dynstat_sst_sd               =   1.0151702470492E+01
(PID.TID 0000.0001) %MON dynstat_sst_del2             =   8.7086044163261E-04
(PID.TID 0000.0001) %MON dynstat_sss_max              =   3.8776875288729E+01
(PID.TID 0000.0001) %MON dynstat_sss_min              =   1.4964427544300E+01
(PID.TID 0000.0001) %MON dynstat_sss_mean             =   3.4630256697514E+01
(PID.TID 0000.0001) %MON dynstat_sss_sd               =   9.6634414480062E-01
(PID.TID 0000.0001) %MON dynstat_sss_del2             =   6.2024871884327E-04
(PID.TID 0000.0001) %MON forcing_qnet_max             =   2.7570773925781E+03
(PID.TID 0000.0001) %MON forcing_qnet_min             =  -1.1118484933445E+03
(PID.TID 0000.0001) %MON forcing_qnet_mean            =   4.1474924198106E+01
(PID.TID 0000.0001) %MON forcing_qnet_sd              =   1.6680333186595E+02
(PID.TID 0000.0001) %MON forcing_qnet_del2            =   5.3826787033408E-01
(PID.TID 0000.0001) %MON forcing_qsw_max              =   0.0000000000000E+00
(PID.TID 0000.0001) %MON forcing_qsw_min              =  -4.4382860490888E+02
(PID.TID 0000.0001) %MON forcing_qsw_mean             =  -5.3643450392674E+01
(PID.TID 0000.0001) %MON forcing_qsw_sd               =   9.8600547149820E+01
(PID.TID 0000.0001) %MON forcing_qsw_del2             =   1.6551803685334E-01
(PID.TID 0000.0001) %MON forcing_empmr_max            =   4.5328778214753E-03
(PID.TID 0000.0001) %MON forcing_empmr_min            =  -1.3300427794456E-01
(PID.TID 0000.0001) %MON forcing_empmr_mean           =  -9.5163997933624E-06
(PID.TID 0000.0001) %MON forcing_empmr_sd             =   4.7686142977500E-04
(PID.TID 0000.0001) %MON forcing_empmr_del2           =   4.9680495030785E-06
(PID.TID 0000.0001) %MON forcing_fu_max               =   1.0626817345619E+00
(PID.TID 0000.0001) %MON forcing_fu_min               =  -8.2070413231850E-01
(PID.TID 0000.0001) %MON forcing_fu_mean              =   1.3084452575321E-02
(PID.TID 0000.0001) %MON forcing_fu_sd                =   1.0568619940840E-01
(PID.TID 0000.0001) %MON forcing_fu_del2              =   1.4706220352234E-04
(PID.TID 0000.0001) %MON forcing_fv_max               =   7.8572809696197E-01
(PID.TID 0000.0001) %MON forcing_fv_min               =  -6.6953468997214E-01
(PID.TID 0000.0001) %MON forcing_fv_mean              =  -8.5319892446211E-03
(PID.TID 0000.0001) %MON forcing_fv_sd                =   1.0395168209139E-01
(PID.TID 0000.0001) %MON forcing_fv_del2              =   1.1765252009902E-04
(PID.TID 0000.0001) %MON trAdv_CFL_u_max              =   7.9860512718100E-02
(PID.TID 0000.0001) %MON trAdv_CFL_v_max              =   1.1951941422345E-01
(PID.TID 0000.0001) %MON trAdv_CFL_w_max              =   1.9765692192833E-01
(PID.TID 0000.0001) %MON advcfl_uvel_max              =   8.4133172619663E-02
(PID.TID 0000.0001) %MON advcfl_vvel_max              =   1.2337546905743E-01
(PID.TID 0000.0001) %MON advcfl_wvel_max              =   1.9346102985246E-01
(PID.TID 0000.0001) %MON advcfl_W_hf_max              =   1.9415283045325E-01
(PID.TID 0000.0001) %MON pe_b_mean                    =   5.8074964995704E-04
(PID.TID 0000.0001) %MON ke_max                       =   1.5489195881417E+00
(PID.TID 0000.0001) %MON ke_mean                      =   4.9903340808071E-04
(PID.TID 0000.0001) %MON ke_vol                       =   1.3349978828209E+18
(PID.TID 0000.0001) %MON vort_r_min                   =  -3.4599506617743E-05
(PID.TID 0000.0001) %MON vort_r_max                   =   4.9869915547591E-05
(PID.TID 0000.0001) %MON vort_a_mean                  =  -1.9727864647440E-05
(PID.TID 0000.0001) %MON vort_a_sd                    =   7.4543219804300E-05
(PID.TID 0000.0001) %MON vort_p_mean                  =  -2.1760530283218E-05
(PID.TID 0000.0001) %MON vort_p_sd                    =   9.7242479347086E-05
(PID.TID 0000.0001) %MON surfExpan_theta_mean         =  -6.3783732603753E-07
(PID.TID 0000.0001) %MON surfExpan_salt_mean          =  -3.2138196940156E-09
(PID.TID 0000.0001) // =======================================================
(PID.TID 0000.0001) // End MONITOR dynamic field statistics
(PID.TID 0000.0001) // =======================================================
 cg2d: Sum(rhs),rhsMax =  -1.64780608071192E-01  5.30988906219613E-02
 cg2d: Sum(rhs),rhsMax =  -2.30260248762244E-01  5.28669160746470E-02
(PID.TID 0000.0001)      cg2d_init_res =   1.52707233577146E-01
(PID.TID 0000.0001)      cg2d_iters(min,last) =      -1      91
(PID.TID 0000.0001)      cg2d_last_res =   6.51539415438773E-06
(PID.TID 0000.0001) // =======================================================
(PID.TID 0000.0001) // Begin MONITOR dynamic field statistics
(PID.TID 0000.0001) // =======================================================
(PID.TID 0000.0001) %MON time_tsnumber                =                    50
(PID.TID 0000.0001) %MON time_secondsf                =   1.8000000000000E+05
(PID.TID 0000.0001) %MON dynstat_eta_max              =   1.0793149953819E+00
(PID.TID 0000.0001) %MON dynstat_eta_min              =  -2.1930554798287E+00
(PID.TID 0000.0001) %MON dynstat_eta_mean             =   1.1654187313281E-04
(PID.TID 0000.0001) %MON dynstat_eta_sd               =   6.6293724529219E-01
(PID.TID 0000.0001) %MON dynstat_eta_del2             =   8.2412072981456E-05
(PID.TID 0000.0001) %MON dynstat_uvel_max             =   8.8645333032196E-01
(PID.TID 0000.0001) %MON dynstat_uvel_min             =  -1.2657112198422E+00
(PID.TID 0000.0001) %MON dynstat_uvel_mean            =   9.2432965170001E-04
(PID.TID 0000.0001) %MON dynstat_uvel_sd              =   2.2230505543673E-02
(PID.TID 0000.0001) %MON dynstat_uvel_del2            =   1.4793102330117E-05
(PID.TID 0000.0001) %MON dynstat_vvel_max             =   1.7382821767794E+00
(PID.TID 0000.0001) %MON dynstat_vvel_min             =  -8.8388035811913E-01
(PID.TID 0000.0001) %MON dynstat_vvel_mean            =   1.0486821054956E-03
(PID.TID 0000.0001) %MON dynstat_vvel_sd              =   2.3115205636564E-02
(PID.TID 0000.0001) %MON dynstat_vvel_del2            =   1.4954772346217E-05
(PID.TID 0000.0001) %MON dynstat_wvel_max             =   2.6137227465796E-03
(PID.TID 0000.0001) %MON dynstat_wvel_min             =  -1.7905371670768E-03
(PID.TID 0000.0001) %MON dynstat_wvel_mean            =   1.0428869092646E-08
(PID.TID 0000.0001) %MON dynstat_wvel_sd              =   2.9578483429123E-05
(PID.TID 0000.0001) %MON dynstat_wvel_del2            =   3.9846101034401E-08
(PID.TID 0000.0001) %MON dynstat_theta_max            =   3.2677634652341E+01
(PID.TID 0000.0001) %MON dynstat_theta_min            =  -2.0417013893094E+00
(PID.TID 0000.0001) %MON dynstat_theta_mean           =   3.5905409537981E+00
(PID.TID 0000.0001) %MON dynstat_theta_sd             =   4.4365226034102E+00
(PID.TID 0000.0001) %MON dynstat_theta_del2           =   1.0586161446237E-04
(PID.TID 0000.0001) %MON dynstat_salt_max             =   4.0711539044073E+01
(PID.TID 0000.0001) %MON dynstat_salt_min             =   1.4570241013604E+01
(PID.TID 0000.0001) %MON dynstat_salt_mean            =   3.4725529071798E+01
(PID.TID 0000.0001) %MON dynstat_salt_sd              =   3.7359615468757E-01
(PID.TID 0000.0001) %MON dynstat_salt_del2            =   2.7617298790601E-05
(PID.TID 0000.0001) %MON dynstat_sst_max              =   3.2608784539307E+01
(PID.TID 0000.0001) %MON dynstat_sst_min              =  -1.9302944038132E+00
(PID.TID 0000.0001) %MON dynstat_sst_mean             =   1.8458195261992E+01
(PID.TID 0000.0001) %MON dynstat_sst_sd               =   1.0152389926578E+01
(PID.TID 0000.0001) %MON dynstat_sst_del2             =   8.7034871553015E-04
(PID.TID 0000.0001) %MON dynstat_sss_max              =   3.8748651653338E+01
(PID.TID 0000.0001) %MON dynstat_sss_min              =   1.4570241013604E+01
(PID.TID 0000.0001) %MON dynstat_sss_mean             =   3.4630099366954E+01
(PID.TID 0000.0001) %MON dynstat_sss_sd               =   9.6656534205156E-01
(PID.TID 0000.0001) %MON dynstat_sss_del2             =   6.4386024956426E-04
(PID.TID 0000.0001) %MON forcing_qnet_max             =   2.3319257204648E+03
(PID.TID 0000.0001) %MON forcing_qnet_min             =  -1.4156595015536E+03
(PID.TID 0000.0001) %MON forcing_qnet_mean            =   3.9339966668976E+01
(PID.TID 0000.0001) %MON forcing_qnet_sd              =   1.6346733556835E+02
(PID.TID 0000.0001) %MON forcing_qnet_del2            =   5.1028717509600E-01
(PID.TID 0000.0001) %MON forcing_qsw_max              =   0.0000000000000E+00
(PID.TID 0000.0001) %MON forcing_qsw_min              =  -4.3696066579427E+02
(PID.TID 0000.0001) %MON forcing_qsw_mean             =  -5.4410146362456E+01
(PID.TID 0000.0001) %MON forcing_qsw_sd               =   9.6719136092775E+01
(PID.TID 0000.0001) %MON forcing_qsw_del2             =   1.6445331710050E-01
(PID.TID 0000.0001) %MON forcing_empmr_max            =   4.7810873948038E-03
(PID.TID 0000.0001) %MON forcing_empmr_min            =  -1.2091544270515E-01
(PID.TID 0000.0001) %MON forcing_empmr_mean           =  -9.4728832795294E-06
(PID.TID 0000.0001) %MON forcing_empmr_sd             =   4.5514451004910E-04
(PID.TID 0000.0001) %MON forcing_empmr_del2           =   4.8175020141464E-06
(PID.TID 0000.0001) %MON forcing_fu_max               =   1.0548041462898E+00
(PID.TID 0000.0001) %MON forcing_fu_min               =  -8.0422276258469E-01
(PID.TID 0000.0001) %MON forcing_fu_mean              =   1.2923683208658E-02
(PID.TID 0000.0001) %MON forcing_fu_sd                =   1.0528056476490E-01
(PID.TID 0000.0001) %MON forcing_fu_del2              =   1.4565285623097E-04
(PID.TID 0000.0001) %MON forcing_fv_max               =   7.9718682169914E-01
(PID.TID 0000.0001) %MON forcing_fv_min               =  -6.6910795786341E-01
(PID.TID 0000.0001) %MON forcing_fv_mean              =  -8.5647114510682E-03
(PID.TID 0000.0001) %MON forcing_fv_sd                =   1.0356237444489E-01
(PID.TID 0000.0001) %MON forcing_fv_del2              =   1.1683192786910E-04
(PID.TID 0000.0001) %MON trAdv_CFL_u_max              =   7.9495030897981E-02
(PID.TID 0000.0001) %MON trAdv_CFL_v_max              =   1.1956631087721E-01
(PID.TID 0000.0001) %MON trAdv_CFL_w_max              =   1.8685493422373E-01
(PID.TID 0000.0001) %MON advcfl_uvel_max              =   8.3764340513280E-02
(PID.TID 0000.0001) %MON advcfl_vvel_max              =   1.2342432136008E-01
(PID.TID 0000.0001) %MON advcfl_wvel_max              =   1.8285954628550E-01
(PID.TID 0000.0001) %MON advcfl_W_hf_max              =   1.8632686025463E-01
(PID.TID 0000.0001) %MON pe_b_mean                    =   5.7810020118737E-04
(PID.TID 0000.0001) %MON ke_max                       =   1.5458007993326E+00
(PID.TID 0000.0001) %MON ke_mean                      =   4.9688234309724E-04
(PID.TID 0000.0001) %MON ke_vol                       =   1.3349979067979E+18
(PID.TID 0000.0001) %MON vort_r_min                   =  -3.4417607637256E-05
(PID.TID 0000.0001) %MON vort_r_max                   =   4.9837659089698E-05
(PID.TID 0000.0001) %MON vort_a_mean                  =  -1.9727864647440E-05
(PID.TID 0000.0001) %MON vort_a_sd                    =   7.4543220437390E-05
(PID.TID 0000.0001) %MON vort_p_mean                  =  -2.1760529817297E-05
(PID.TID 0000.0001) %MON vort_p_sd                    =   9.7242455457585E-05
(PID.TID 0000.0001) %MON surfExpan_theta_mean         =  -7.1081426390334E-07
(PID.TID 0000.0001) %MON surfExpan_salt_mean          =  -1.7613233940349E-08
(PID.TID 0000.0001) // =======================================================
(PID.TID 0000.0001) // End MONITOR dynamic field statistics
(PID.TID 0000.0001) // =======================================================
 cg2d: Sum(rhs),rhsMax =  -2.96394870033147E-01  5.26424713861371E-02
 cg2d: Sum(rhs),rhsMax =  -3.60756671892658E-01  5.24266802153799E-02
(PID.TID 0000.0001)      cg2d_init_res =   1.48178800621712E-01
(PID.TID 0000.0001)      cg2d_iters(min,last) =      -1      90
(PID.TID 0000.0001)      cg2d_last_res =   7.03075971848523E-06
(PID.TID 0000.0001) // =======================================================
(PID.TID 0000.0001) // Begin MONITOR dynamic field statistics
(PID.TID 0000.0001) // =======================================================
(PID.TID 0000.0001) %MON time_tsnumber                =                    52
(PID.TID 0000.0001) %MON time_secondsf                =   1.8720000000000E+05
(PID.TID 0000.0001) %MON dynstat_eta_max              =   1.0777835954917E+00
(PID.TID 0000.0001) %MON dynstat_eta_min              =  -2.1211421636707E+00
(PID.TID 0000.0001) %MON dynstat_eta_mean             =   1.8259017139720E-04
(PID.TID 0000.0001) %MON dynstat_eta_sd               =   6.6150815335497E-01
(PID.TID 0000.0001) %MON dynstat_eta_del2             =   8.1735348873120E-05
(PID.TID 0000.0001) %MON dynstat_uvel_max             =   9.0931540292207E-01
(PID.TID 0000.0001) %MON dynstat_uvel_min             =  -1.2591405574317E+00
(PID.TID 0000.0001) %MON dynstat_uvel_mean            =   9.7873275921896E-04
(PID.TID 0000.0001) %MON dynstat_uvel_sd              =   2.2207866327837E-02
(PID.TID 0000.0001) %MON dynstat_uvel_del2            =   1.4612699895808E-05
(PID.TID 0000.0001) %MON dynstat_vvel_max             =   1.7370328396526E+00
(PID.TID 0000.0001) %MON dynstat_vvel_min             =  -8.7146136431045E-01
(PID.TID 0000.0001) %MON dynstat_vvel_mean            =   1.0526156505995E-03
(PID.TID 0000.0001) %MON dynstat_vvel_sd              =   2.3063590980782E-02
(PID.TID 0000.0001) %MON dynstat_vvel_del2            =   1.4758997417585E-05
(PID.TID 0000.0001) %MON dynstat_wvel_max             =   2.6423818539568E-03
(PID.TID 0000.0001) %MON dynstat_wvel_min             =  -1.5865223935584E-03
(PID.TID 0000.0001) %MON dynstat_wvel_mean            =   1.2475429021115E-08
(PID.TID 0000.0001) %MON dynstat_wvel_sd              =   2.9179136540703E-05
(PID.TID 0000.0001) %MON dynstat_wvel_del2            =   3.8589935408974E-08
(PID.TID 0000.0001) %MON dynstat_theta_max            =   3.2669712484147E+01
(PID.TID 0000.0001) %MON dynstat_theta_min            =  -2.0416791034900E+00
(PID.TID 0000.0001) %MON dynstat_theta_mean           =   3.5905230286691E+00
(PID.TID 0000.0001) %MON dynstat_theta_sd             =   4.4364524871040E+00
(PID.TID 0000.0001) %MON dynstat_theta_del2           =   1.0574991150285E-04
(PID.TID 0000.0001) %MON dynstat_salt_max             =   4.0711540347714E+01
(PID.TID 0000.0001) %MON dynstat_salt_min             =   1.4196368738049E+01
(PID.TID 0000.0001) %MON dynstat_salt_mean            =   3.4725520777433E+01
(PID.TID 0000.0001) %MON dynstat_salt_sd              =   3.7357607773499E-01
(PID.TID 0000.0001) %MON dynstat_salt_del2            =   2.7918490840243E-05
(PID.TID 0000.0001) %MON dynstat_sst_max              =   3.2591943133069E+01
(PID.TID 0000.0001) %MON dynstat_sst_min              =  -1.9289452334619E+00
(PID.TID 0000.0001) %MON dynstat_sst_mean             =   1.8456038254680E+01
(PID.TID 0000.0001) %MON dynstat_sst_sd               =   1.0152987613637E+01
(PID.TID 0000.0001) %MON dynstat_sst_del2             =   8.6972140624558E-04
(PID.TID 0000.0001) %MON dynstat_sss_max              =   3.8721341388746E+01
(PID.TID 0000.0001) %MON dynstat_sss_min              =   1.4196368738049E+01
(PID.TID 0000.0001) %MON dynstat_sss_mean             =   3.4629979928212E+01
(PID.TID 0000.0001) %MON dynstat_sss_sd               =   9.6681559014923E-01
(PID.TID 0000.0001) %MON dynstat_sss_del2             =   6.6616744773550E-04
(PID.TID 0000.0001) %MON forcing_qnet_max             =   3.4712737326943E+03
(PID.TID 0000.0001) %MON forcing_qnet_min             =  -4.2133078087752E+03
(PID.TID 0000.0001) %MON forcing_qnet_mean            =   3.7945786351539E+01
(PID.TID 0000.0001) %MON forcing_qnet_sd              =   1.6276144431913E+02
(PID.TID 0000.0001) %MON forcing_qnet_del2            =   5.1411862968919E-01
(PID.TID 0000.0001) %MON forcing_qsw_max              =   0.0000000000000E+00
(PID.TID 0000.0001) %MON forcing_qsw_min              =  -4.2712726575427E+02
(PID.TID 0000.0001) %MON forcing_qsw_mean             =  -5.5248653549633E+01
(PID.TID 0000.0001) %MON forcing_qsw_sd               =   9.5961118016133E+01
(PID.TID 0000.0001) %MON forcing_qsw_del2             =   1.6426409507781E-01
(PID.TID 0000.0001) %MON forcing_empmr_max            =   3.6781411617994E-03
(PID.TID 0000.0001) %MON forcing_empmr_min            =  -1.0965983569622E-01
(PID.TID 0000.0001) %MON forcing_empmr_mean           =  -9.3111664975278E-06
(PID.TID 0000.0001) %MON forcing_empmr_sd             =   4.3895795389255E-04
(PID.TID 0000.0001) %MON forcing_empmr_del2           =   4.6552590263611E-06
(PID.TID 0000.0001) %MON forcing_fu_max               =   1.0430293083191E+00
(PID.TID 0000.0001) %MON forcing_fu_min               =  -7.8739222884178E-01
(PID.TID 0000.0001) %MON forcing_fu_mean              =   1.2763507608727E-02
(PID.TID 0000.0001) %MON forcing_fu_sd                =   1.0490372908690E-01
(PID.TID 0000.0001) %MON forcing_fu_del2              =   1.4452129732151E-04
(PID.TID 0000.0001) %MON forcing_fv_max               =   8.0779719352722E-01
(PID.TID 0000.0001) %MON forcing_fv_min               =  -6.6961327814723E-01
(PID.TID 0000.0001) %MON forcing_fv_mean              =  -8.5385136060615E-03
(PID.TID 0000.0001) %MON forcing_fv_sd                =   1.0327898083866E-01
(PID.TID 0000.0001) %MON forcing_fv_del2              =   1.1640632282389E-04
(PID.TID 0000.0001) %MON trAdv_CFL_u_max              =   7.9065097825692E-02
(PID.TID 0000.0001) %MON trAdv_CFL_v_max              =   1.1947563402409E-01
(PID.TID 0000.0001) %MON trAdv_CFL_w_max              =   1.7335139061861E-01
(PID.TID 0000.0001) %MON advcfl_uvel_max              =   8.3329496296901E-02
(PID.TID 0000.0001) %MON advcfl_vvel_max              =   1.2333561390563E-01
(PID.TID 0000.0001) %MON advcfl_wvel_max              =   1.7550442846823E-01
(PID.TID 0000.0001) %MON advcfl_W_hf_max              =   1.8407146454485E-01
(PID.TID 0000.0001) %MON pe_b_mean                    =   5.7561048549489E-04
(PID.TID 0000.0001) %MON ke_max                       =   1.5398022633364E+00
(PID.TID 0000.0001) %MON ke_mean                      =   4.9530175828867E-04
(PID.TID 0000.0001) %MON ke_vol                       =   1.3349979306466E+18
(PID.TID 0000.0001) %MON vort_r_min                   =  -3.4224399262160E-05
(PID.TID 0000.0001) %MON vort_r_max                   =   4.9753263317881E-05
(PID.TID 0000.0001) %MON vort_a_mean                  =  -1.9727864647440E-05
(PID.TID 0000.0001) %MON vort_a_sd                    =   7.4543219808523E-05
(PID.TID 0000.0001) %MON vort_p_mean                  =  -2.1760529355313E-05
(PID.TID 0000.0001) %MON vort_p_sd                    =   9.7242498349875E-05
(PID.TID 0000.0001) %MON surfExpan_theta_mean         =  -7.3727414317537E-07
(PID.TID 0000.0001) %MON surfExpan_salt_mean          =  -3.0564561355319E-08
(PID.TID 0000.0001) // =======================================================
(PID.TID 0000.0001) // End MONITOR dynamic field statistics
(PID.TID 0000.0001) // =======================================================
 cg2d: Sum(rhs),rhsMax =  -4.23957261354492E-01  5.22141928089895E-02
 cg2d: Sum(rhs),rhsMax =  -4.83120996193179E-01  5.20088628794052E-02
(PID.TID 0000.0001)      cg2d_init_res =   1.43983378752632E-01
(PID.TID 0000.0001)      cg2d_iters(min,last) =      -1      90
(PID.TID 0000.0001)      cg2d_last_res =   6.91807531211094E-06
(PID.TID 0000.0001) // =======================================================
(PID.TID 0000.0001) // Begin MONITOR dynamic field statistics
(PID.TID 0000.0001) // =======================================================
(PID.TID 0000.0001) %MON time_tsnumber                =                    54
(PID.TID 0000.0001) %MON time_secondsf                =   1.9440000000000E+05
(PID.TID 0000.0001) %MON dynstat_eta_max              =   1.0763042400273E+00
(PID.TID 0000.0001) %MON dynstat_eta_min              =  -2.0588209516303E+00
(PID.TID 0000.0001) %MON dynstat_eta_mean             =   2.4452256153081E-04
(PID.TID 0000.0001) %MON dynstat_eta_sd               =   6.6015308868290E-01
(PID.TID 0000.0001) %MON dynstat_eta_del2             =   8.1081994192264E-05
(PID.TID 0000.0001) %MON dynstat_uvel_max             =   9.3380653190335E-01
(PID.TID 0000.0001) %MON dynstat_uvel_min             =  -1.2504703929508E+00
(PID.TID 0000.0001) %MON dynstat_uvel_mean            =   1.0365729325977E-03
(PID.TID 0000.0001) %MON dynstat_uvel_sd              =   2.2194522080385E-02
(PID.TID 0000.0001) %MON dynstat_uvel_del2            =   1.4448400834405E-05
(PID.TID 0000.0001) %MON dynstat_vvel_max             =   1.7345021317580E+00
(PID.TID 0000.0001) %MON dynstat_vvel_min             =  -8.6112334608116E-01
(PID.TID 0000.0001) %MON dynstat_vvel_mean            =   1.0493931074295E-03
(PID.TID 0000.0001) %MON dynstat_vvel_sd              =   2.3027376446140E-02
(PID.TID 0000.0001) %MON dynstat_vvel_del2            =   1.4589863493108E-05
(PID.TID 0000.0001) %MON dynstat_wvel_max             =   2.4350449139522E-03
(PID.TID 0000.0001) %MON dynstat_wvel_min             =  -1.4339552551825E-03
(PID.TID 0000.0001) %MON dynstat_wvel_mean            =   1.6556359490025E-08
(PID.TID 0000.0001) %MON dynstat_wvel_sd              =   2.8761659114165E-05
(PID.TID 0000.0001) %MON dynstat_wvel_del2            =   3.7467102622108E-08
(PID.TID 0000.0001) %MON dynstat_theta_max            =   3.2660289060836E+01
(PID.TID 0000.0001) %MON dynstat_theta_min            =  -2.0416610180865E+00
(PID.TID 0000.0001) %MON dynstat_theta_mean           =   3.5905060630897E+00
(PID.TID 0000.0001) %MON dynstat_theta_sd             =   4.4363842117605E+00
(PID.TID 0000.0001) %MON dynstat_theta_del2           =   1.0563837361747E-04
(PID.TID 0000.0001) %MON dynstat_salt_max             =   4.0711541397722E+01
(PID.TID 0000.0001) %MON dynstat_salt_min             =   1.3841233821822E+01
(PID.TID 0000.0001) %MON dynstat_salt_mean            =   3.4725512986408E+01
(PID.TID 0000.0001) %MON dynstat_salt_sd              =   3.7355750922541E-01
(PID.TID 0000.0001) %MON dynstat_salt_del2            =   2.8181502107047E-05
(PID.TID 0000.0001) %MON dynstat_sst_max              =   3.2575820384756E+01
(PID.TID 0000.0001) %MON dynstat_sst_min              =  -1.9275853010950E+00
(PID.TID 0000.0001) %MON dynstat_sst_mean             =   1.8454188188188E+01
(PID.TID 0000.0001) %MON dynstat_sst_sd               =   1.0153398429760E+01
(PID.TID 0000.0001) %MON dynstat_sst_del2             =   8.6901660988903E-04
(PID.TID 0000.0001) %MON dynstat_sss_max              =   3.8694907186086E+01
(PID.TID 0000.0001) %MON dynstat_sss_min              =   1.3841233821822E+01
(PID.TID 0000.0001) %MON dynstat_sss_mean             =   3.4629881430143E+01
(PID.TID 0000.0001) %MON dynstat_sss_sd               =   9.6708558395769E-01
(PID.TID 0000.0001) %MON dynstat_sss_del2             =   6.8555624437873E-04
(PID.TID 0000.0001) %MON forcing_qnet_max             =   2.5678608398438E+03
(PID.TID 0000.0001) %MON forcing_qnet_min             =  -1.2575469574173E+03
(PID.TID 0000.0001) %MON forcing_qnet_mean            =   3.4767056682708E+01
(PID.TID 0000.0001) %MON forcing_qnet_sd              =   1.6281256005228E+02
(PID.TID 0000.0001) %MON forcing_qnet_del2            =   4.9085090363046E-01
(PID.TID 0000.0001) %MON forcing_qsw_max              =   0.0000000000000E+00
(PID.TID 0000.0001) %MON forcing_qsw_min              =  -4.0470068339834E+02
(PID.TID 0000.0001) %MON forcing_qsw_mean             =  -5.6644755054276E+01
(PID.TID 0000.0001) %MON forcing_qsw_sd               =   9.5941899607810E+01
(PID.TID 0000.0001) %MON forcing_qsw_del2             =   1.6520640977690E-01
(PID.TID 0000.0001) %MON forcing_empmr_max            =   3.7186685949564E-03
(PID.TID 0000.0001) %MON forcing_empmr_min            =  -9.4413407146931E-02
(PID.TID 0000.0001) %MON forcing_empmr_mean           =  -8.5591666140991E-06
(PID.TID 0000.0001) %MON forcing_empmr_sd             =   4.0415591382906E-04
(PID.TID 0000.0001) %MON forcing_empmr_del2           =   4.2753170102912E-06
(PID.TID 0000.0001) %MON forcing_fu_max               =   1.0386865735054E+00
(PID.TID 0000.0001) %MON forcing_fu_min               =  -7.7463635802269E-01
(PID.TID 0000.0001) %MON forcing_fu_mean              =   1.2563056338413E-02
(PID.TID 0000.0001) %MON forcing_fu_sd                =   1.0454990718477E-01
(PID.TID 0000.0001) %MON forcing_fu_del2              =   1.4369023213136E-04
(PID.TID 0000.0001) %MON forcing_fv_max               =   8.0092352628708E-01
(PID.TID 0000.0001) %MON forcing_fv_min               =  -6.6961242519493E-01
(PID.TID 0000.0001) %MON forcing_fv_mean              =  -8.5203586639296E-03
(PID.TID 0000.0001) %MON forcing_fv_sd                =   1.0298703090997E-01
(PID.TID 0000.0001) %MON forcing_fv_del2              =   1.1592281282785E-04
(PID.TID 0000.0001) %MON trAdv_CFL_u_max              =   7.8498768548834E-02
(PID.TID 0000.0001) %MON trAdv_CFL_v_max              =   1.1929435469325E-01
(PID.TID 0000.0001) %MON trAdv_CFL_w_max              =   1.7149031818667E-01
(PID.TID 0000.0001) %MON advcfl_uvel_max              =   8.2755707743481E-02
(PID.TID 0000.0001) %MON advcfl_vvel_max              =   1.2315592449236E-01
(PID.TID 0000.0001) %MON advcfl_wvel_max              =   1.7373045715171E-01
(PID.TID 0000.0001) %MON advcfl_W_hf_max              =   1.8221036042889E-01
(PID.TID 0000.0001) %MON pe_b_mean                    =   5.7325471025299E-04
(PID.TID 0000.0001) %MON ke_max                       =   1.5323179647199E+00
(PID.TID 0000.0001) %MON ke_mean                      =   4.9426406463942E-04
(PID.TID 0000.0001) %MON ke_vol                       =   1.3349979537612E+18
(PID.TID 0000.0001) %MON vort_r_min                   =  -3.4002064929564E-05
(PID.TID 0000.0001) %MON vort_r_max                   =   4.9636808813464E-05
(PID.TID 0000.0001) %MON vort_a_mean                  =  -1.9727864647440E-05
(PID.TID 0000.0001) %MON vort_a_sd                    =   7.4543217168298E-05
(PID.TID 0000.0001) %MON vort_p_mean                  =  -2.1760528929476E-05
(PID.TID 0000.0001) %MON vort_p_sd                    =   9.7242548250488E-05
(PID.TID 0000.0001) %MON surfExpan_theta_mean         =  -7.0367923807951E-07
(PID.TID 0000.0001) %MON surfExpan_salt_mean          =  -4.0231792676600E-08
(PID.TID 0000.0001) // =======================================================
(PID.TID 0000.0001) // End MONITOR dynamic field statistics
(PID.TID 0000.0001) // =======================================================
 cg2d: Sum(rhs),rhsMax =  -5.42876499098838E-01  5.18049504735577E-02
 cg2d: Sum(rhs),rhsMax =  -6.02694617441696E-01  5.16024625209874E-02
(PID.TID 0000.0001)      cg2d_init_res =   1.40634934658866E-01
(PID.TID 0000.0001)      cg2d_iters(min,last) =      -1      89
(PID.TID 0000.0001)      cg2d_last_res =   7.09447736289189E-06
(PID.TID 0000.0001) // =======================================================
(PID.TID 0000.0001) // Begin MONITOR dynamic field statistics
(PID.TID 0000.0001) // =======================================================
(PID.TID 0000.0001) %MON time_tsnumber                =                    56
(PID.TID 0000.0001) %MON time_secondsf                =   2.0160000000000E+05
(PID.TID 0000.0001) %MON dynstat_eta_max              =   1.0749260181948E+00
(PID.TID 0000.0001) %MON dynstat_eta_min              =  -2.0073155760494E+00
(PID.TID 0000.0001) %MON dynstat_eta_mean             =   3.0504249005708E-04
(PID.TID 0000.0001) %MON dynstat_eta_sd               =   6.5886583527061E-01
(PID.TID 0000.0001) %MON dynstat_eta_del2             =   8.0480941717039E-05
(PID.TID 0000.0001) %MON dynstat_uvel_max             =   9.5993802260125E-01
(PID.TID 0000.0001) %MON dynstat_uvel_min             =  -1.2394223026833E+00
(PID.TID 0000.0001) %MON dynstat_uvel_mean            =   1.0947312988861E-03
(PID.TID 0000.0001) %MON dynstat_uvel_sd              =   2.2184272475956E-02
(PID.TID 0000.0001) %MON dynstat_uvel_del2            =   1.4297326929529E-05
(PID.TID 0000.0001) %MON dynstat_vvel_max             =   1.7310173313211E+00
(PID.TID 0000.0001) %MON dynstat_vvel_min             =  -8.5868431127797E-01
(PID.TID 0000.0001) %MON dynstat_vvel_mean            =   1.0380724093868E-03
(PID.TID 0000.0001) %MON dynstat_vvel_sd              =   2.2995104482375E-02
(PID.TID 0000.0001) %MON dynstat_vvel_del2            =   1.4443654814787E-05
(PID.TID 0000.0001) %MON dynstat_wvel_max             =   2.0221239454296E-03
(PID.TID 0000.0001) %MON dynstat_wvel_min             =  -1.4628711807618E-03
(PID.TID 0000.0001) %MON dynstat_wvel_mean            =   2.0907731167284E-08
(PID.TID 0000.0001) %MON dynstat_wvel_sd              =   2.8315285221626E-05
(PID.TID 0000.0001) %MON dynstat_wvel_del2            =   3.6366795476834E-08
(PID.TID 0000.0001) %MON dynstat_theta_max            =   3.2649447292303E+01
(PID.TID 0000.0001) %MON dynstat_theta_min            =  -2.0416471736750E+00
(PID.TID 0000.0001) %MON dynstat_theta_mean           =   3.5904903635677E+00
(PID.TID 0000.0001) %MON dynstat_theta_sd             =   4.4363194443829E+00
(PID.TID 0000.0001) %MON dynstat_theta_del2           =   1.0552703120657E-04
(PID.TID 0000.0001) %MON dynstat_salt_max             =   4.0711542149985E+01
(PID.TID 0000.0001) %MON dynstat_salt_min             =   1.3498586870681E+01
(PID.TID 0000.0001) %MON dynstat_salt_mean            =   3.4725505744318E+01
(PID.TID 0000.0001) %MON dynstat_salt_sd              =   3.7354028180472E-01
(PID.TID 0000.0001) %MON dynstat_salt_del2            =   2.8416654642597E-05
(PID.TID 0000.0001) %MON dynstat_sst_max              =   3.2560465816356E+01
(PID.TID 0000.0001) %MON dynstat_sst_min              =  -1.9262174590370E+00
(PID.TID 0000.0001) %MON dynstat_sst_mean             =   1.8452644682420E+01
(PID.TID 0000.0001) %MON dynstat_sst_sd               =   1.0153733811464E+01
(PID.TID 0000.0001) %MON dynstat_sst_del2             =   8.6850329079061E-04
(PID.TID 0000.0001) %MON dynstat_sss_max              =   3.8669331870373E+01
(PID.TID 0000.0001) %MON dynstat_sss_min              =   1.3498586870681E+01
(PID.TID 0000.0001) %MON dynstat_sss_mean             =   3.4629815769489E+01
(PID.TID 0000.0001) %MON dynstat_sss_sd               =   9.6735791538267E-01
(PID.TID 0000.0001) %MON dynstat_sss_del2             =   7.0286627380017E-04
(PID.TID 0000.0001) %MON forcing_qnet_max             =   3.2255839669436E+03
(PID.TID 0000.0001) %MON forcing_qnet_min             =  -1.7428443245259E+03
(PID.TID 0000.0001) %MON forcing_qnet_mean            =   3.2881906688223E+01
(PID.TID 0000.0001) %MON forcing_qnet_sd              =   1.6351589586502E+02
(PID.TID 0000.0001) %MON forcing_qnet_del2            =   5.3283094693081E-01
(PID.TID 0000.0001) %MON forcing_qsw_max              =   0.0000000000000E+00
(PID.TID 0000.0001) %MON forcing_qsw_min              =  -3.9394431384408E+02
(PID.TID 0000.0001) %MON forcing_qsw_mean             =  -5.7650710875485E+01
(PID.TID 0000.0001) %MON forcing_qsw_sd               =   9.6834476122706E+01
(PID.TID 0000.0001) %MON forcing_qsw_del2             =   1.6621840295236E-01
(PID.TID 0000.0001) %MON forcing_empmr_max            =   7.4848090298474E-03
(PID.TID 0000.0001) %MON forcing_empmr_min            =  -9.2507556080818E-02
(PID.TID 0000.0001) %MON forcing_empmr_mean           =  -8.6538357126007E-06
(PID.TID 0000.0001) %MON forcing_empmr_sd             =   3.8611635797501E-04
(PID.TID 0000.0001) %MON forcing_empmr_del2           =   4.1229317768472E-06
(PID.TID 0000.0001) %MON forcing_fu_max               =   1.0330778956413E+00
(PID.TID 0000.0001) %MON forcing_fu_min               =  -7.6753047108650E-01
(PID.TID 0000.0001) %MON forcing_fu_mean              =   1.2359718541340E-02
(PID.TID 0000.0001) %MON forcing_fu_sd                =   1.0424376992061E-01
(PID.TID 0000.0001) %MON forcing_fu_del2              =   1.4293110185289E-04
(PID.TID 0000.0001) %MON forcing_fv_max               =   8.0256134271622E-01
(PID.TID 0000.0001) %MON forcing_fv_min               =  -6.7922845675167E-01
(PID.TID 0000.0001) %MON forcing_fv_mean              =  -8.4640698669245E-03
(PID.TID 0000.0001) %MON forcing_fv_sd                =   1.0281992155604E-01
(PID.TID 0000.0001) %MON forcing_fv_del2              =   1.1594005538806E-04
(PID.TID 0000.0001) %MON trAdv_CFL_u_max              =   7.7777390705285E-02
(PID.TID 0000.0001) %MON trAdv_CFL_v_max              =   1.1904688411734E-01
(PID.TID 0000.0001) %MON trAdv_CFL_w_max              =   1.7078764942450E-01
(PID.TID 0000.0001) %MON advcfl_uvel_max              =   8.2024548865624E-02
(PID.TID 0000.0001) %MON advcfl_vvel_max              =   1.2290849105793E-01
(PID.TID 0000.0001) %MON advcfl_wvel_max              =   1.7306078924841E-01
(PID.TID 0000.0001) %MON advcfl_W_hf_max              =   1.8150767196336E-01
(PID.TID 0000.0001) %MON pe_b_mean                    =   5.7102130971564E-04
(PID.TID 0000.0001) %MON ke_max                       =   1.5239189890411E+00
(PID.TID 0000.0001) %MON ke_mean                      =   4.9337686080235E-04
(PID.TID 0000.0001) %MON ke_vol                       =   1.3349979753096E+18
(PID.TID 0000.0001) %MON vort_r_min                   =  -3.3743985636615E-05
(PID.TID 0000.0001) %MON vort_r_max                   =   4.9496406161513E-05
(PID.TID 0000.0001) %MON vort_a_mean                  =  -1.9727864647440E-05
(PID.TID 0000.0001) %MON vort_a_sd                    =   7.4543212402880E-05
(PID.TID 0000.0001) %MON vort_p_mean                  =  -2.1760528570439E-05
(PID.TID 0000.0001) %MON vort_p_sd                    =   9.7242527300570E-05
(PID.TID 0000.0001) %MON surfExpan_theta_mean         =  -6.4672192801339E-07
(PID.TID 0000.0001) %MON surfExpan_salt_mean          =  -4.3065344551704E-08
(PID.TID 0000.0001) // =======================================================
(PID.TID 0000.0001) // End MONITOR dynamic field statistics
(PID.TID 0000.0001) // =======================================================
 cg2d: Sum(rhs),rhsMax =  -6.64814862503442E-01  5.13972061477204E-02
 cg2d: Sum(rhs),rhsMax =  -7.27633857601861E-01  5.11926809908636E-02
(PID.TID 0000.0001)      cg2d_init_res =   1.38056297612340E-01
(PID.TID 0000.0001)      cg2d_iters(min,last) =      -1      88
(PID.TID 0000.0001)      cg2d_last_res =   7.04622994023949E-06
(PID.TID 0000.0001) // =======================================================
(PID.TID 0000.0001) // Begin MONITOR dynamic field statistics
(PID.TID 0000.0001) // =======================================================
(PID.TID 0000.0001) %MON time_tsnumber                =                    58
(PID.TID 0000.0001) %MON time_secondsf                =   2.0880000000000E+05
(PID.TID 0000.0001) %MON dynstat_eta_max              =   1.0735369609116E+00
(PID.TID 0000.0001) %MON dynstat_eta_min              =  -1.9672125859498E+00
(PID.TID 0000.0001) %MON dynstat_eta_mean             =   3.6827812518871E-04
(PID.TID 0000.0001) %MON dynstat_eta_sd               =   6.5763997463691E-01
(PID.TID 0000.0001) %MON dynstat_eta_del2             =   7.9940081385345E-05
(PID.TID 0000.0001) %MON dynstat_uvel_max             =   9.8702928740507E-01
(PID.TID 0000.0001) %MON dynstat_uvel_min             =  -1.2261007071223E+00
(PID.TID 0000.0001) %MON dynstat_uvel_mean            =   1.1510961241904E-03
(PID.TID 0000.0001) %MON dynstat_uvel_sd              =   2.2163028943977E-02
(PID.TID 0000.0001) %MON dynstat_uvel_del2            =   1.4155377164881E-05
(PID.TID 0000.0001) %MON dynstat_vvel_max             =   1.7265494857646E+00
(PID.TID 0000.0001) %MON dynstat_vvel_min             =  -8.5582016677996E-01
(PID.TID 0000.0001) %MON dynstat_vvel_mean            =   1.0206560171775E-03
(PID.TID 0000.0001) %MON dynstat_vvel_sd              =   2.2959163248271E-02
(PID.TID 0000.0001) %MON dynstat_vvel_del2            =   1.4318058673298E-05
(PID.TID 0000.0001) %MON dynstat_wvel_max             =   1.8107162937895E-03
(PID.TID 0000.0001) %MON dynstat_wvel_min             =  -1.4846974270246E-03
(PID.TID 0000.0001) %MON dynstat_wvel_mean            =   2.4635602690283E-08
(PID.TID 0000.0001) %MON dynstat_wvel_sd              =   2.7885882835184E-05
(PID.TID 0000.0001) %MON dynstat_wvel_del2            =   3.5241831868700E-08
(PID.TID 0000.0001) %MON dynstat_theta_max            =   3.2637148549022E+01
(PID.TID 0000.0001) %MON dynstat_theta_min            =  -2.0416373047237E+00
(PID.TID 0000.0001) %MON dynstat_theta_mean           =   3.5904759846901E+00
(PID.TID 0000.0001) %MON dynstat_theta_sd             =   4.4362578089331E+00
(PID.TID 0000.0001) %MON dynstat_theta_del2           =   1.0541713013957E-04
(PID.TID 0000.0001) %MON dynstat_salt_max             =   4.0711542586733E+01
(PID.TID 0000.0001) %MON dynstat_salt_min             =   1.3165403924057E+01
(PID.TID 0000.0001) %MON dynstat_salt_mean            =   3.4725498958144E+01
(PID.TID 0000.0001) %MON dynstat_salt_sd              =   3.7352421693496E-01
(PID.TID 0000.0001) %MON dynstat_salt_del2            =   2.8605712285340E-05
(PID.TID 0000.0001) %MON dynstat_sst_max              =   3.2545996711349E+01
(PID.TID 0000.0001) %MON dynstat_sst_min              =  -1.9243723926544E+00
(PID.TID 0000.0001) %MON dynstat_sst_mean             =   1.8451362442882E+01
(PID.TID 0000.0001) %MON dynstat_sst_sd               =   1.0153906409677E+01
(PID.TID 0000.0001) %MON dynstat_sst_del2             =   8.6778550809156E-04
(PID.TID 0000.0001) %MON dynstat_sss_max              =   3.8644630382736E+01
(PID.TID 0000.0001) %MON dynstat_sss_min              =   1.3165403924057E+01
(PID.TID 0000.0001) %MON dynstat_sss_mean             =   3.4629758058175E+01
(PID.TID 0000.0001) %MON dynstat_sss_sd               =   9.6763395550827E-01
(PID.TID 0000.0001) %MON dynstat_sss_del2             =   7.1700685287789E-04
(PID.TID 0000.0001) %MON forcing_qnet_max             =   2.0177364501953E+03
(PID.TID 0000.0001) %MON forcing_qnet_min             =  -4.4998304989490E+03
(PID.TID 0000.0001) %MON forcing_qnet_mean            =   2.9236528077526E+01
(PID.TID 0000.0001) %MON forcing_qnet_sd              =   1.6641407227278E+02
(PID.TID 0000.0001) %MON forcing_qnet_del2            =   4.8812580043413E-01
(PID.TID 0000.0001) %MON forcing_qsw_max              =   0.0000000000000E+00
(PID.TID 0000.0001) %MON forcing_qsw_min              =  -4.0367979957737E+02
(PID.TID 0000.0001) %MON forcing_qsw_mean             =  -5.9064124276375E+01
(PID.TID 0000.0001) %MON forcing_qsw_sd               =   9.9471049242466E+01
(PID.TID 0000.0001) %MON forcing_qsw_del2             =   1.6848193993104E-01
(PID.TID 0000.0001) %MON forcing_empmr_max            =   4.8346626572311E-03
(PID.TID 0000.0001) %MON forcing_empmr_min            =  -8.7752617895603E-02
(PID.TID 0000.0001) %MON forcing_empmr_mean           =  -9.0879699708504E-06
(PID.TID 0000.0001) %MON forcing_empmr_sd             =   3.6675677451081E-04
(PID.TID 0000.0001) %MON forcing_empmr_del2           =   3.8626304881901E-06
(PID.TID 0000.0001) %MON forcing_fu_max               =   1.0235607624054E+00
(PID.TID 0000.0001) %MON forcing_fu_min               =  -7.5418889522552E-01
(PID.TID 0000.0001) %MON forcing_fu_mean              =   1.2180411763480E-02
(PID.TID 0000.0001) %MON forcing_fu_sd                =   1.0386587857760E-01
(PID.TID 0000.0001) %MON forcing_fu_del2              =   1.4172526090577E-04
(PID.TID 0000.0001) %MON forcing_fv_max               =   7.8730657696724E-01
(PID.TID 0000.0001) %MON forcing_fv_min               =  -6.8581004364543E-01
(PID.TID 0000.0001) %MON forcing_fv_mean              =  -8.3706187385556E-03
(PID.TID 0000.0001) %MON forcing_fv_sd                =   1.0256104288660E-01
(PID.TID 0000.0001) %MON forcing_fv_del2              =   1.1542889906749E-04
(PID.TID 0000.0001) %MON trAdv_CFL_u_max              =   7.6910178315705E-02
(PID.TID 0000.0001) %MON trAdv_CFL_v_max              =   1.1873155301723E-01
(PID.TID 0000.0001) %MON trAdv_CFL_w_max              =   1.7041187990487E-01
(PID.TID 0000.0001) %MON advcfl_uvel_max              =   8.1142930176262E-02
(PID.TID 0000.0001) %MON advcfl_vvel_max              =   1.2259125786466E-01
(PID.TID 0000.0001) %MON advcfl_wvel_max              =   1.7270235553167E-01
(PID.TID 0000.0001) %MON advcfl_W_hf_max              =   1.8113191243976E-01
(PID.TID 0000.0001) %MON pe_b_mean                    =   5.6889849253840E-04
(PID.TID 0000.0001) %MON ke_max                       =   1.5140718499374E+00
(PID.TID 0000.0001) %MON ke_mean                      =   4.9216987520420E-04
(PID.TID 0000.0001) %MON ke_vol                       =   1.3349979974050E+18
(PID.TID 0000.0001) %MON vort_r_min                   =  -3.3447800108351E-05
(PID.TID 0000.0001) %MON vort_r_max                   =   4.9325180609939E-05
(PID.TID 0000.0001) %MON vort_a_mean                  =  -1.9727864647440E-05
(PID.TID 0000.0001) %MON vort_a_sd                    =   7.4543205767255E-05
(PID.TID 0000.0001) %MON vort_p_mean                  =  -2.1760528252699E-05
(PID.TID 0000.0001) %MON vort_p_sd                    =   9.7242431397889E-05
(PID.TID 0000.0001) %MON surfExpan_theta_mean         =  -5.6543032160489E-07
(PID.TID 0000.0001) %MON surfExpan_salt_mean          =  -3.9967442588336E-08
(PID.TID 0000.0001) // =======================================================
(PID.TID 0000.0001) // End MONITOR dynamic field statistics
(PID.TID 0000.0001) // =======================================================
 cg2d: Sum(rhs),rhsMax =  -7.86862131364705E-01  5.09837145494252E-02
 cg2d: Sum(rhs),rhsMax =  -8.43443836798141E-01  5.07733637568436E-02
(PID.TID 0000.0001)      cg2d_init_res =   1.35555761109638E-01
(PID.TID 0000.0001)      cg2d_iters(min,last) =      -1      88
(PID.TID 0000.0001)      cg2d_last_res =   7.02393841542682E-06
(PID.TID 0000.0001) // =======================================================
(PID.TID 0000.0001) // Begin MONITOR dynamic field statistics
(PID.TID 0000.0001) // =======================================================
(PID.TID 0000.0001) %MON time_tsnumber                =                    60
(PID.TID 0000.0001) %MON time_secondsf                =   2.1600000000000E+05
(PID.TID 0000.0001) %MON dynstat_eta_max              =   1.0719857271422E+00
(PID.TID 0000.0001) %MON dynstat_eta_min              =  -1.9640986612492E+00
(PID.TID 0000.0001) %MON dynstat_eta_mean             =   4.2689315742091E-04
(PID.TID 0000.0001) %MON dynstat_eta_sd               =   6.5646941538772E-01
(PID.TID 0000.0001) %MON dynstat_eta_del2             =   7.9459287489937E-05
(PID.TID 0000.0001) %MON dynstat_uvel_max             =   1.0142770497630E+00
(PID.TID 0000.0001) %MON dynstat_uvel_min             =  -1.2106606714394E+00
(PID.TID 0000.0001) %MON dynstat_uvel_mean            =   1.2039079412870E-03
(PID.TID 0000.0001) %MON dynstat_uvel_sd              =   2.2137814353598E-02
(PID.TID 0000.0001) %MON dynstat_uvel_del2            =   1.4023679512208E-05
(PID.TID 0000.0001) %MON dynstat_vvel_max             =   1.7205843905733E+00
(PID.TID 0000.0001) %MON dynstat_vvel_min             =  -8.5262268499738E-01
(PID.TID 0000.0001) %MON dynstat_vvel_mean            =   1.0002746481854E-03
(PID.TID 0000.0001) %MON dynstat_vvel_sd              =   2.2903241655489E-02
(PID.TID 0000.0001) %MON dynstat_vvel_del2            =   1.4207596112439E-05
(PID.TID 0000.0001) %MON dynstat_wvel_max             =   1.7094204441290E-03
(PID.TID 0000.0001) %MON dynstat_wvel_min             =  -1.5025394644030E-03
(PID.TID 0000.0001) %MON dynstat_wvel_mean            =   2.7726290664464E-08
(PID.TID 0000.0001) %MON dynstat_wvel_sd              =   2.7491699681811E-05
(PID.TID 0000.0001) %MON dynstat_wvel_del2            =   3.4093397504711E-08
(PID.TID 0000.0001) %MON dynstat_theta_max            =   3.2621303934954E+01
(PID.TID 0000.0001) %MON dynstat_theta_min            =  -2.0416299616987E+00
(PID.TID 0000.0001) %MON dynstat_theta_mean           =   3.5904628669382E+00
(PID.TID 0000.0001) %MON dynstat_theta_sd             =   4.4361998794154E+00
(PID.TID 0000.0001) %MON dynstat_theta_del2           =   1.0531314406648E-04
(PID.TID 0000.0001) %MON dynstat_salt_max             =   4.0711542711649E+01
(PID.TID 0000.0001) %MON dynstat_salt_min             =   1.2830687670956E+01
(PID.TID 0000.0001) %MON dynstat_salt_mean            =   3.4725492626258E+01
(PID.TID 0000.0001) %MON dynstat_salt_sd              =   3.7350926372560E-01
(PID.TID 0000.0001) %MON dynstat_salt_del2            =   2.8753687733284E-05
(PID.TID 0000.0001) %MON dynstat_sst_max              =   3.2532447192463E+01
(PID.TID 0000.0001) %MON dynstat_sst_min              =  -1.9225322073584E+00
(PID.TID 0000.0001) %MON dynstat_sst_mean             =   1.8450282275973E+01
(PID.TID 0000.0001) %MON dynstat_sst_sd               =   1.0154017784536E+01
(PID.TID 0000.0001) %MON dynstat_sst_del2             =   8.6711062727066E-04
(PID.TID 0000.0001) %MON dynstat_sss_max              =   3.8620762159390E+01
(PID.TID 0000.0001) %MON dynstat_sss_min              =   1.2830687670956E+01
(PID.TID 0000.0001) %MON dynstat_sss_mean             =   3.4629706407538E+01
(PID.TID 0000.0001) %MON dynstat_sss_sd               =   9.6790280712230E-01
(PID.TID 0000.0001) %MON dynstat_sss_del2             =   7.2835915864359E-04
(PID.TID 0000.0001) %MON forcing_qnet_max             =   9.8753436279297E+02
(PID.TID 0000.0001) %MON forcing_qnet_min             =  -1.9420661145681E+03
(PID.TID 0000.0001) %MON forcing_qnet_mean            =   2.7387188086492E+01
(PID.TID 0000.0001) %MON forcing_qnet_sd              =   1.6691573029446E+02
(PID.TID 0000.0001) %MON forcing_qnet_del2            =   4.5515458949814E-01
(PID.TID 0000.0001) %MON forcing_qsw_max              =   0.0000000000000E+00
(PID.TID 0000.0001) %MON forcing_qsw_min              =  -4.0859062907395E+02
(PID.TID 0000.0001) %MON forcing_qsw_mean             =  -5.9932779564611E+01
(PID.TID 0000.0001) %MON forcing_qsw_sd               =   1.0186534339975E+02
(PID.TID 0000.0001) %MON forcing_qsw_del2             =   1.7051309172328E-01
(PID.TID 0000.0001) %MON forcing_empmr_max            =   5.2838814444840E-03
(PID.TID 0000.0001) %MON forcing_empmr_min            =  -8.3088144659996E-02
(PID.TID 0000.0001) %MON forcing_empmr_mean           =  -8.1856266416373E-06
(PID.TID 0000.0001) %MON forcing_empmr_sd             =   3.4658786563706E-04
(PID.TID 0000.0001) %MON forcing_empmr_del2           =   3.5640817867877E-06
(PID.TID 0000.0001) %MON forcing_fu_max               =   1.0154638290405E+00
(PID.TID 0000.0001) %MON forcing_fu_min               =  -7.1588620543480E-01
(PID.TID 0000.0001) %MON forcing_fu_mean              =   1.1973798909659E-02
(PID.TID 0000.0001) %MON forcing_fu_sd                =   1.0344304179677E-01
(PID.TID 0000.0001) %MON forcing_fu_del2              =   1.4096988491625E-04
(PID.TID 0000.0001) %MON forcing_fv_max               =   7.9995197057724E-01
(PID.TID 0000.0001) %MON forcing_fv_min               =  -6.8877451196965E-01
(PID.TID 0000.0001) %MON forcing_fv_mean              =  -8.2635784155079E-03
(PID.TID 0000.0001) %MON forcing_fv_sd                =   1.0249778232366E-01
(PID.TID 0000.0001) %MON forcing_fv_del2              =   1.1521827784172E-04
(PID.TID 0000.0001) %MON trAdv_CFL_u_max              =   7.6663585438444E-02
(PID.TID 0000.0001) %MON trAdv_CFL_v_max              =   1.1831174457315E-01
(PID.TID 0000.0001) %MON trAdv_CFL_w_max              =   1.6900012512941E-01
(PID.TID 0000.0001) %MON advcfl_uvel_max              =   8.0121113836008E-02
(PID.TID 0000.0001) %MON advcfl_vvel_max              =   1.2216771453224E-01
(PID.TID 0000.0001) %MON advcfl_wvel_max              =   1.7135575820332E-01
(PID.TID 0000.0001) %MON advcfl_W_hf_max              =   1.7972019379642E-01
(PID.TID 0000.0001) %MON pe_b_mean                    =   5.6687513787505E-04
(PID.TID 0000.0001) %MON ke_max                       =   1.5012499391316E+00
(PID.TID 0000.0001) %MON ke_mean                      =   4.9043458472644E-04
(PID.TID 0000.0001) %MON ke_vol                       =   1.3349980195202E+18
(PID.TID 0000.0001) %MON vort_r_min                   =  -3.3109649283505E-05
(PID.TID 0000.0001) %MON vort_r_max                   =   4.9102553135200E-05
(PID.TID 0000.0001) %MON vort_a_mean                  =  -1.9727864647440E-05
(PID.TID 0000.0001) %MON vort_a_sd                    =   7.4543197670642E-05
(PID.TID 0000.0001) %MON vort_p_mean                  =  -2.1760527980059E-05
(PID.TID 0000.0001) %MON vort_p_sd                    =   9.7242342620697E-05
(PID.TID 0000.0001) %MON surfExpan_theta_mean         =  -4.4391593703441E-07
(PID.TID 0000.0001) %MON surfExpan_salt_mean          =  -3.4355093894385E-08
(PID.TID 0000.0001) // =======================================================
(PID.TID 0000.0001) // End MONITOR dynamic field statistics
(PID.TID 0000.0001) // =======================================================
 cg2d: Sum(rhs),rhsMax =  -9.00491790910381E-01  5.05690905728660E-02
 cg2d: Sum(rhs),rhsMax =  -9.57333344845845E-01  5.03675689112506E-02
(PID.TID 0000.0001)      cg2d_init_res =   1.33393361251166E-01
(PID.TID 0000.0001)      cg2d_iters(min,last) =      -1      92
(PID.TID 0000.0001)      cg2d_last_res =   6.48419317689374E-06
(PID.TID 0000.0001) // =======================================================
(PID.TID 0000.0001) // Begin MONITOR dynamic field statistics
(PID.TID 0000.0001) // =======================================================
(PID.TID 0000.0001) %MON time_tsnumber                =                    62
(PID.TID 0000.0001) %MON time_secondsf                =   2.2320000000000E+05
(PID.TID 0000.0001) %MON dynstat_eta_max              =   1.0702673530286E+00
(PID.TID 0000.0001) %MON dynstat_eta_min              =  -1.9644621676999E+00
(PID.TID 0000.0001) %MON dynstat_eta_mean             =   4.8453617947691E-04
(PID.TID 0000.0001) %MON dynstat_eta_sd               =   6.5536580950932E-01
(PID.TID 0000.0001) %MON dynstat_eta_del2             =   7.9027941165454E-05
(PID.TID 0000.0001) %MON dynstat_uvel_max             =   1.0411757483879E+00
(PID.TID 0000.0001) %MON dynstat_uvel_min             =  -1.1929892725883E+00
(PID.TID 0000.0001) %MON dynstat_uvel_mean            =   1.2509777947545E-03
(PID.TID 0000.0001) %MON dynstat_uvel_sd              =   2.2109053175907E-02
(PID.TID 0000.0001) %MON dynstat_uvel_del2            =   1.3899916026922E-05
(PID.TID 0000.0001) %MON dynstat_vvel_max             =   1.7127274275312E+00
(PID.TID 0000.0001) %MON dynstat_vvel_min             =  -8.4954985728794E-01
(PID.TID 0000.0001) %MON dynstat_vvel_mean            =   9.8068602741683E-04
(PID.TID 0000.0001) %MON dynstat_vvel_sd              =   2.2834638896947E-02
(PID.TID 0000.0001) %MON dynstat_vvel_del2            =   1.4106503678935E-05
(PID.TID 0000.0001) %MON dynstat_wvel_max             =   1.5556451748148E-03
(PID.TID 0000.0001) %MON dynstat_wvel_min             =  -1.5106281864196E-03
(PID.TID 0000.0001) %MON dynstat_wvel_mean            =   2.9664468018263E-08
(PID.TID 0000.0001) %MON dynstat_wvel_sd              =   2.7128516617238E-05
(PID.TID 0000.0001) %MON dynstat_wvel_del2            =   3.2944033062566E-08
(PID.TID 0000.0001) %MON dynstat_theta_max            =   3.2588901890808E+01
(PID.TID 0000.0001) %MON dynstat_theta_min            =  -2.0416243612218E+00
(PID.TID 0000.0001) %MON dynstat_theta_mean           =   3.5904507890716E+00
(PID.TID 0000.0001) %MON dynstat_theta_sd             =   4.4361445491515E+00
(PID.TID 0000.0001) %MON dynstat_theta_del2           =   1.0522077361745E-04
(PID.TID 0000.0001) %MON dynstat_salt_max             =   4.0711542547668E+01
(PID.TID 0000.0001) %MON dynstat_salt_min             =   1.2475827795682E+01
(PID.TID 0000.0001) %MON dynstat_salt_mean            =   3.4725486648773E+01
(PID.TID 0000.0001) %MON dynstat_salt_sd              =   3.7349542701533E-01
(PID.TID 0000.0001) %MON dynstat_salt_del2            =   2.8855617572292E-05
(PID.TID 0000.0001) %MON dynstat_sst_max              =   3.2520066517334E+01
(PID.TID 0000.0001) %MON dynstat_sst_min              =  -1.9207712239919E+00
(PID.TID 0000.0001) %MON dynstat_sst_mean             =   1.8449368611626E+01
(PID.TID 0000.0001) %MON dynstat_sst_sd               =   1.0153982124135E+01
(PID.TID 0000.0001) %MON dynstat_sst_del2             =   8.6685934450323E-04
(PID.TID 0000.0001) %MON dynstat_sss_max              =   3.8597694074962E+01
(PID.TID 0000.0001) %MON dynstat_sss_min              =   1.2475827795682E+01
(PID.TID 0000.0001) %MON dynstat_sss_mean             =   3.4629657337794E+01
(PID.TID 0000.0001) %MON dynstat_sss_sd               =   9.6818957638881E-01
(PID.TID 0000.0001) %MON dynstat_sss_del2             =   7.3664892969272E-04
(PID.TID 0000.0001) %MON forcing_qnet_max             =   2.2180498046875E+03
(PID.TID 0000.0001) %MON forcing_qnet_min             =  -1.8088820767003E+03
(PID.TID 0000.0001) %MON forcing_qnet_mean            =   2.4541887180521E+01
(PID.TID 0000.0001) %MON forcing_qnet_sd              =   1.7239879794228E+02
(PID.TID 0000.0001) %MON forcing_qnet_del2            =   5.2423562866700E-01
(PID.TID 0000.0001) %MON forcing_qsw_max              =   0.0000000000000E+00
(PID.TID 0000.0001) %MON forcing_qsw_min              =  -4.0666072139446E+02
(PID.TID 0000.0001) %MON forcing_qsw_mean             =  -6.0951334291035E+01
(PID.TID 0000.0001) %MON forcing_qsw_sd               =   1.0563283521514E+02
(PID.TID 0000.0001) %MON forcing_qsw_del2             =   1.7285134475622E-01
(PID.TID 0000.0001) %MON forcing_empmr_max            =   3.5633682273328E-03
(PID.TID 0000.0001) %MON forcing_empmr_min            =  -7.5611047446728E-02
(PID.TID 0000.0001) %MON forcing_empmr_mean           =  -8.2232187008223E-06
(PID.TID 0000.0001) %MON forcing_empmr_sd             =   3.3774854105760E-04
(PID.TID 0000.0001) %MON forcing_empmr_del2           =   3.2954148783731E-06
(PID.TID 0000.0001) %MON forcing_fu_max               =   1.0101899504662E+00
(PID.TID 0000.0001) %MON forcing_fu_min               =  -7.0584958791733E-01
(PID.TID 0000.0001) %MON forcing_fu_mean              =   1.1778514828839E-02
(PID.TID 0000.0001) %MON forcing_fu_sd                =   1.0306794381787E-01
(PID.TID 0000.0001) %MON forcing_fu_del2              =   1.4015116813645E-04
(PID.TID 0000.0001) %MON forcing_fv_max               =   8.2803660631180E-01
(PID.TID 0000.0001) %MON forcing_fv_min               =  -6.9224578272601E-01
(PID.TID 0000.0001) %MON forcing_fv_mean              =  -8.1385328215377E-03
(PID.TID 0000.0001) %MON forcing_fv_sd                =   1.0248319981928E-01
(PID.TID 0000.0001) %MON forcing_fv_del2              =   1.1527646823496E-04
(PID.TID 0000.0001) %MON trAdv_CFL_u_max              =   8.1470225873213E-02
(PID.TID 0000.0001) %MON trAdv_CFL_v_max              =   1.1775877847770E-01
(PID.TID 0000.0001) %MON trAdv_CFL_w_max              =   1.6644240243888E-01
(PID.TID 0000.0001) %MON advcfl_uvel_max              =   7.8951626635840E-02
(PID.TID 0000.0001) %MON advcfl_vvel_max              =   1.2160984174014E-01
(PID.TID 0000.0001) %MON advcfl_wvel_max              =   1.6891655842903E-01
(PID.TID 0000.0001) %MON advcfl_W_hf_max              =   1.7716250604111E-01
(PID.TID 0000.0001) %MON pe_b_mean                    =   5.6497082741966E-04
(PID.TID 0000.0001) %MON ke_max                       =   1.4846111452217E+00
(PID.TID 0000.0001) %MON ke_mean                      =   4.8834483079596E-04
(PID.TID 0000.0001) %MON ke_vol                       =   1.3349980401102E+18
(PID.TID 0000.0001) %MON vort_r_min                   =  -3.2719523536399E-05
(PID.TID 0000.0001) %MON vort_r_max                   =   4.8816759315378E-05
(PID.TID 0000.0001) %MON vort_a_mean                  =  -1.9727864647440E-05
(PID.TID 0000.0001) %MON vort_a_sd                    =   7.4543188667059E-05
(PID.TID 0000.0001) %MON vort_p_mean                  =  -2.1760527775409E-05
(PID.TID 0000.0001) %MON vort_p_sd                    =   9.7242340237989E-05
(PID.TID 0000.0001) %MON surfExpan_theta_mean         =  -3.3093401390724E-07
(PID.TID 0000.0001) %MON surfExpan_salt_mean          =  -2.6687005108410E-08
(PID.TID 0000.0001) // =======================================================
(PID.TID 0000.0001) // End MONITOR dynamic field statistics
(PID.TID 0000.0001) // =======================================================
 cg2d: Sum(rhs),rhsMax =  -1.01180751137614E+00  5.01905651551224E-02
 cg2d: Sum(rhs),rhsMax =  -1.06468899619862E+00  5.01482102019113E-02
(PID.TID 0000.0001)      cg2d_init_res =   1.31189233049492E-01
(PID.TID 0000.0001)      cg2d_iters(min,last) =      -1      94
(PID.TID 0000.0001)      cg2d_last_res =   6.98432952816825E-06
(PID.TID 0000.0001) // =======================================================
(PID.TID 0000.0001) // Begin MONITOR dynamic field statistics
(PID.TID 0000.0001) // =======================================================
(PID.TID 0000.0001) %MON time_tsnumber                =                    64
(PID.TID 0000.0001) %MON time_secondsf                =   2.3040000000000E+05
(PID.TID 0000.0001) %MON dynstat_eta_max              =   1.0685216662710E+00
(PID.TID 0000.0001) %MON dynstat_eta_min              =  -1.9658663582817E+00
(PID.TID 0000.0001) %MON dynstat_eta_mean             =   5.3887221345268E-04
(PID.TID 0000.0001) %MON dynstat_eta_sd               =   6.5434612323411E-01
(PID.TID 0000.0001) %MON dynstat_eta_del2             =   7.8618458364986E-05
(PID.TID 0000.0001) %MON dynstat_uvel_max             =   1.0665806257883E+00
(PID.TID 0000.0001) %MON dynstat_uvel_min             =  -1.1733814562670E+00
(PID.TID 0000.0001) %MON dynstat_uvel_mean            =   1.2890077821216E-03
(PID.TID 0000.0001) %MON dynstat_uvel_sd              =   2.2087744047672E-02
(PID.TID 0000.0001) %MON dynstat_uvel_del2            =   1.3784477425219E-05
(PID.TID 0000.0001) %MON dynstat_vvel_max             =   1.7023455078918E+00
(PID.TID 0000.0001) %MON dynstat_vvel_min             =  -8.4637705225344E-01
(PID.TID 0000.0001) %MON dynstat_vvel_mean            =   9.6529996040137E-04
(PID.TID 0000.0001) %MON dynstat_vvel_sd              =   2.2759750020119E-02
(PID.TID 0000.0001) %MON dynstat_vvel_del2            =   1.4005818785201E-05
(PID.TID 0000.0001) %MON dynstat_wvel_max             =   1.3632791786841E-03
(PID.TID 0000.0001) %MON dynstat_wvel_min             =  -1.5005822125909E-03
(PID.TID 0000.0001) %MON dynstat_wvel_mean            =   3.0955437207381E-08
(PID.TID 0000.0001) %MON dynstat_wvel_sd              =   2.6799543164418E-05
(PID.TID 0000.0001) %MON dynstat_wvel_del2            =   3.1838434314069E-08
(PID.TID 0000.0001) %MON dynstat_theta_max            =   3.2576524316135E+01
(PID.TID 0000.0001) %MON dynstat_theta_min            =  -2.0416201856169E+00
(PID.TID 0000.0001) %MON dynstat_theta_mean           =   3.5904398576378E+00
(PID.TID 0000.0001) %MON dynstat_theta_sd             =   4.4360930191615E+00
(PID.TID 0000.0001) %MON dynstat_theta_del2           =   1.0513588407838E-04
(PID.TID 0000.0001) %MON dynstat_salt_max             =   4.0711542090108E+01
(PID.TID 0000.0001) %MON dynstat_salt_min             =   1.2090917456200E+01
(PID.TID 0000.0001) %MON dynstat_salt_mean            =   3.4725481027097E+01
(PID.TID 0000.0001) %MON dynstat_salt_sd              =   3.7348258734909E-01
(PID.TID 0000.0001) %MON dynstat_salt_del2            =   2.8921933191810E-05
(PID.TID 0000.0001) %MON dynstat_sst_max              =   3.2509376281093E+01
(PID.TID 0000.0001) %MON dynstat_sst_min              =  -1.9200059487988E+00
(PID.TID 0000.0001) %MON dynstat_sst_mean             =   1.8448627134025E+01
(PID.TID 0000.0001) %MON dynstat_sst_sd               =   1.0153859189846E+01
(PID.TID 0000.0001) %MON dynstat_sst_del2             =   8.6655939496087E-04
(PID.TID 0000.0001) %MON dynstat_sss_max              =   3.8575389938629E+01
(PID.TID 0000.0001) %MON dynstat_sss_min              =   1.2090917456200E+01
(PID.TID 0000.0001) %MON dynstat_sss_mean             =   3.4629609107299E+01
(PID.TID 0000.0001) %MON dynstat_sss_sd               =   9.6848462505703E-01
(PID.TID 0000.0001) %MON dynstat_sss_del2             =   7.4269564916761E-04
(PID.TID 0000.0001) %MON forcing_qnet_max             =   2.2336694335938E+03
(PID.TID 0000.0001) %MON forcing_qnet_min             =  -1.1933118576167E+03
(PID.TID 0000.0001) %MON forcing_qnet_mean            =   2.2731617459932E+01
(PID.TID 0000.0001) %MON forcing_qnet_sd              =   1.7462935727600E+02
(PID.TID 0000.0001) %MON forcing_qnet_del2            =   5.0939049014497E-01
(PID.TID 0000.0001) %MON forcing_qsw_max              =   0.0000000000000E+00
(PID.TID 0000.0001) %MON forcing_qsw_min              =  -4.1138948176415E+02
(PID.TID 0000.0001) %MON forcing_qsw_mean             =  -6.1899086028364E+01
(PID.TID 0000.0001) %MON forcing_qsw_sd               =   1.0827134164505E+02
(PID.TID 0000.0001) %MON forcing_qsw_del2             =   1.7503807701219E-01
(PID.TID 0000.0001) %MON forcing_empmr_max            =   6.0138315893710E-03
(PID.TID 0000.0001) %MON forcing_empmr_min            =  -6.9406360387802E-02
(PID.TID 0000.0001) %MON forcing_empmr_mean           =  -7.6503189095526E-06
(PID.TID 0000.0001) %MON forcing_empmr_sd             =   3.4237132267359E-04
(PID.TID 0000.0001) %MON forcing_empmr_del2           =   3.1851285806475E-06
(PID.TID 0000.0001) %MON forcing_fu_max               =   1.0039625167847E+00
(PID.TID 0000.0001) %MON forcing_fu_min               =  -7.0244711637497E-01
(PID.TID 0000.0001) %MON forcing_fu_mean              =   1.1576626360143E-02
(PID.TID 0000.0001) %MON forcing_fu_sd                =   1.0276011048210E-01
(PID.TID 0000.0001) %MON forcing_fu_del2              =   1.3955627727799E-04
(PID.TID 0000.0001) %MON forcing_fv_max               =   8.5328251123428E-01
(PID.TID 0000.0001) %MON forcing_fv_min               =  -6.9336027993897E-01
(PID.TID 0000.0001) %MON forcing_fv_mean              =  -8.0393058348374E-03
(PID.TID 0000.0001) %MON forcing_fv_sd                =   1.0226804093586E-01
(PID.TID 0000.0001) %MON forcing_fv_del2              =   1.1497460498386E-04
(PID.TID 0000.0001) %MON trAdv_CFL_u_max              =   8.0186018947599E-02
(PID.TID 0000.0001) %MON trAdv_CFL_v_max              =   1.1702727672738E-01
(PID.TID 0000.0001) %MON trAdv_CFL_w_max              =   1.6400875597723E-01
(PID.TID 0000.0001) %MON advcfl_uvel_max              =   7.7653987982322E-02
(PID.TID 0000.0001) %MON advcfl_vvel_max              =   1.2087268789767E-01
(PID.TID 0000.0001) %MON advcfl_wvel_max              =   1.6659604121490E-01
(PID.TID 0000.0001) %MON advcfl_W_hf_max              =   1.7472886943141E-01
(PID.TID 0000.0001) %MON pe_b_mean                    =   5.6321417999487E-04
(PID.TID 0000.0001) %MON ke_max                       =   1.4627862129162E+00
(PID.TID 0000.0001) %MON ke_mean                      =   4.8627621770982E-04
(PID.TID 0000.0001) %MON ke_vol                       =   1.3349980602808E+18
(PID.TID 0000.0001) %MON vort_r_min                   =  -3.2265376265393E-05
(PID.TID 0000.0001) %MON vort_r_max                   =   4.8443981761730E-05
(PID.TID 0000.0001) %MON vort_a_mean                  =  -1.9727864647440E-05
(PID.TID 0000.0001) %MON vort_a_sd                    =   7.4543179380669E-05
(PID.TID 0000.0001) %MON vort_p_mean                  =  -2.1760527611067E-05
(PID.TID 0000.0001) %MON vort_p_sd                    =   9.7242415531544E-05
(PID.TID 0000.0001) %MON surfExpan_theta_mean         =  -2.1927796672791E-07
(PID.TID 0000.0001) %MON surfExpan_salt_mean          =  -1.8154868418791E-08
(PID.TID 0000.0001) // =======================================================
(PID.TID 0000.0001) // End MONITOR dynamic field statistics
(PID.TID 0000.0001) // =======================================================
 cg2d: Sum(rhs),rhsMax =  -1.11675742066598E+00  5.00778596706201E-02
 cg2d: Sum(rhs),rhsMax =  -1.16722930973467E+00  4.99676951377006E-02
(PID.TID 0000.0001)      cg2d_init_res =   1.29002819249389E-01
(PID.TID 0000.0001)      cg2d_iters(min,last) =      -1      95
(PID.TID 0000.0001)      cg2d_last_res =   7.03888368303733E-06
(PID.TID 0000.0001) // =======================================================
(PID.TID 0000.0001) // Begin MONITOR dynamic field statistics
(PID.TID 0000.0001) // =======================================================
(PID.TID 0000.0001) %MON time_tsnumber                =                    66
(PID.TID 0000.0001) %MON time_secondsf                =   2.3760000000000E+05
(PID.TID 0000.0001) %MON dynstat_eta_max              =   1.0668755359606E+00
(PID.TID 0000.0001) %MON dynstat_eta_min              =  -1.9681750312022E+00
(PID.TID 0000.0001) %MON dynstat_eta_mean             =   5.9077105519949E-04
(PID.TID 0000.0001) %MON dynstat_eta_sd               =   6.5342213023661E-01
(PID.TID 0000.0001) %MON dynstat_eta_del2             =   7.8222078225676E-05
(PID.TID 0000.0001) %MON dynstat_uvel_max             =   1.0894474474026E+00
(PID.TID 0000.0001) %MON dynstat_uvel_min             =  -1.1519858539245E+00
(PID.TID 0000.0001) %MON dynstat_uvel_mean            =   1.3148301815198E-03
(PID.TID 0000.0001) %MON dynstat_uvel_sd              =   2.2070055073470E-02
(PID.TID 0000.0001) %MON dynstat_uvel_del2            =   1.3678727314251E-05
(PID.TID 0000.0001) %MON dynstat_vvel_max             =   1.6890010373616E+00
(PID.TID 0000.0001) %MON dynstat_vvel_min             =  -8.4316378765488E-01
(PID.TID 0000.0001) %MON dynstat_vvel_mean            =   9.5626858247822E-04
(PID.TID 0000.0001) %MON dynstat_vvel_sd              =   2.2698640957674E-02
(PID.TID 0000.0001) %MON dynstat_vvel_del2            =   1.3900449631952E-05
(PID.TID 0000.0001) %MON dynstat_wvel_max             =   1.4514956913794E-03
(PID.TID 0000.0001) %MON dynstat_wvel_min             =  -1.4704200629257E-03
(PID.TID 0000.0001) %MON dynstat_wvel_mean            =   3.1366144467247E-08
(PID.TID 0000.0001) %MON dynstat_wvel_sd              =   2.6519730569503E-05
(PID.TID 0000.0001) %MON dynstat_wvel_del2            =   3.0816334326339E-08
(PID.TID 0000.0001) %MON dynstat_theta_max            =   3.2560120310735E+01
(PID.TID 0000.0001) %MON dynstat_theta_min            =  -2.0416174168432E+00
(PID.TID 0000.0001) %MON dynstat_theta_mean           =   3.5904301474179E+00
(PID.TID 0000.0001) %MON dynstat_theta_sd             =   4.4360463616722E+00
(PID.TID 0000.0001) %MON dynstat_theta_del2           =   1.0505426528743E-04
(PID.TID 0000.0001) %MON dynstat_salt_max             =   4.0711541377693E+01
(PID.TID 0000.0001) %MON dynstat_salt_min             =   1.1633172818332E+01
(PID.TID 0000.0001) %MON dynstat_salt_mean            =   3.4725475734681E+01
(PID.TID 0000.0001) %MON dynstat_salt_sd              =   3.7347075806796E-01
(PID.TID 0000.0001) %MON dynstat_salt_del2            =   2.8944494503026E-05
(PID.TID 0000.0001) %MON dynstat_sst_max              =   3.2501470716248E+01
(PID.TID 0000.0001) %MON dynstat_sst_min              =  -1.9199145964078E+00
(PID.TID 0000.0001) %MON dynstat_sst_mean             =   1.8448119699780E+01
(PID.TID 0000.0001) %MON dynstat_sst_sd               =   1.0153776709743E+01
(PID.TID 0000.0001) %MON dynstat_sst_del2             =   8.6618107031389E-04
(PID.TID 0000.0001) %MON dynstat_sss_max              =   3.8553819676999E+01
(PID.TID 0000.0001) %MON dynstat_sss_min              =   1.1633172818332E+01
(PID.TID 0000.0001) %MON dynstat_sss_mean             =   3.4629578822453E+01
(PID.TID 0000.0001) %MON dynstat_sss_sd               =   9.6881049012768E-01
(PID.TID 0000.0001) %MON dynstat_sss_del2             =   7.4602058373538E-04
(PID.TID 0000.0001) %MON forcing_qnet_max             =   1.8428257685076E+03
(PID.TID 0000.0001) %MON forcing_qnet_min             =  -1.0714840514704E+03
(PID.TID 0000.0001) %MON forcing_qnet_mean            =   1.9490905123516E+01
(PID.TID 0000.0001) %MON forcing_qnet_sd              =   1.7864799572452E+02
(PID.TID 0000.0001) %MON forcing_qnet_del2            =   4.7986150401369E-01
(PID.TID 0000.0001) %MON forcing_qsw_max              =   0.0000000000000E+00
(PID.TID 0000.0001) %MON forcing_qsw_min              =  -4.2785865349995E+02
(PID.TID 0000.0001) %MON forcing_qsw_mean             =  -6.3224634779104E+01
(PID.TID 0000.0001) %MON forcing_qsw_sd               =   1.1167747126884E+02
(PID.TID 0000.0001) %MON forcing_qsw_del2             =   1.7683046671576E-01
(PID.TID 0000.0001) %MON forcing_empmr_max            =   4.2974175885320E-03
(PID.TID 0000.0001) %MON forcing_empmr_min            =  -8.0776318907738E-02
(PID.TID 0000.0001) %MON forcing_empmr_mean           =  -7.3017247650690E-06
(PID.TID 0000.0001) %MON forcing_empmr_sd             =   3.6186526856184E-04
(PID.TID 0000.0001) %MON forcing_empmr_del2           =   2.9780623823993E-06
(PID.TID 0000.0001) %MON forcing_fu_max               =   9.9395242333412E-01
(PID.TID 0000.0001) %MON forcing_fu_min               =  -7.0176801085472E-01
(PID.TID 0000.0001) %MON forcing_fu_mean              =   1.1398016891441E-02
(PID.TID 0000.0001) %MON forcing_fu_sd                =   1.0238381792669E-01
(PID.TID 0000.0001) %MON forcing_fu_del2              =   1.3907164934778E-04
(PID.TID 0000.0001) %MON forcing_fv_max               =   8.7168651819229E-01
(PID.TID 0000.0001) %MON forcing_fv_min               =  -6.9523829226051E-01
(PID.TID 0000.0001) %MON forcing_fv_mean              =  -7.9887458633425E-03
(PID.TID 0000.0001) %MON forcing_fv_sd                =   1.0218650954227E-01
(PID.TID 0000.0001) %MON forcing_fv_del2              =   1.1502355704876E-04
(PID.TID 0000.0001) %MON trAdv_CFL_u_max              =   7.8784534492224E-02
(PID.TID 0000.0001) %MON trAdv_CFL_v_max              =   1.1608701272144E-01
(PID.TID 0000.0001) %MON trAdv_CFL_w_max              =   1.6285133910123E-01
(PID.TID 0000.0001) %MON advcfl_uvel_max              =   7.6238034254487E-02
(PID.TID 0000.0001) %MON advcfl_vvel_max              =   1.1992518222736E-01
(PID.TID 0000.0001) %MON advcfl_wvel_max              =   1.6549261063388E-01
(PID.TID 0000.0001) %MON advcfl_W_hf_max              =   1.7357144469557E-01
(PID.TID 0000.0001) %MON pe_b_mean                    =   5.6162475951918E-04
(PID.TID 0000.0001) %MON ke_max                       =   1.4357910497388E+00
(PID.TID 0000.0001) %MON ke_mean                      =   4.8458399259672E-04
(PID.TID 0000.0001) %MON ke_vol                       =   1.3349980792979E+18
(PID.TID 0000.0001) %MON vort_r_min                   =  -3.1749595214565E-05
(PID.TID 0000.0001) %MON vort_r_max                   =   4.7980897769732E-05
(PID.TID 0000.0001) %MON vort_a_mean                  =  -1.9727864647440E-05
(PID.TID 0000.0001) %MON vort_a_sd                    =   7.4543170473226E-05
(PID.TID 0000.0001) %MON vort_p_mean                  =  -2.1760527489620E-05
(PID.TID 0000.0001) %MON vort_p_sd                    =   9.7242486843131E-05
(PID.TID 0000.0001) %MON surfExpan_theta_mean         =  -1.0744397510008E-07
(PID.TID 0000.0001) %MON surfExpan_salt_mean          =  -7.0825613676350E-09
(PID.TID 0000.0001) // =======================================================
(PID.TID 0000.0001) // End MONITOR dynamic field statistics
(PID.TID 0000.0001) // =======================================================
 cg2d: Sum(rhs),rhsMax =  -1.21651810326405E+00  4.98159413434581E-02
 cg2d: Sum(rhs),rhsMax =  -1.26982118965534E+00  4.96312454905593E-02
(PID.TID 0000.0001)      cg2d_init_res =   1.26847645414474E-01
(PID.TID 0000.0001)      cg2d_iters(min,last) =      -1      96
(PID.TID 0000.0001)      cg2d_last_res =   6.94363926284232E-06
(PID.TID 0000.0001) // =======================================================
(PID.TID 0000.0001) // Begin MONITOR dynamic field statistics
(PID.TID 0000.0001) // =======================================================
(PID.TID 0000.0001) %MON time_tsnumber                =                    68
(PID.TID 0000.0001) %MON time_secondsf                =   2.4480000000000E+05
(PID.TID 0000.0001) %MON dynstat_eta_max              =   1.0654114165202E+00
(PID.TID 0000.0001) %MON dynstat_eta_min              =  -1.9712410941966E+00
(PID.TID 0000.0001) %MON dynstat_eta_mean             =   6.4269599629746E-04
(PID.TID 0000.0001) %MON dynstat_eta_sd               =   6.5259249720269E-01
(PID.TID 0000.0001) %MON dynstat_eta_del2             =   7.7825774004093E-05
(PID.TID 0000.0001) %MON dynstat_uvel_max             =   1.1089143131025E+00
(PID.TID 0000.0001) %MON dynstat_uvel_min             =  -1.1292147200661E+00
(PID.TID 0000.0001) %MON dynstat_uvel_mean            =   1.3265196982041E-03
(PID.TID 0000.0001) %MON dynstat_uvel_sd              =   2.2053831195361E-02
(PID.TID 0000.0001) %MON dynstat_uvel_del2            =   1.3578774437650E-05
(PID.TID 0000.0001) %MON dynstat_vvel_max             =   1.6734403064053E+00
(PID.TID 0000.0001) %MON dynstat_vvel_min             =  -8.3994599495912E-01
(PID.TID 0000.0001) %MON dynstat_vvel_mean            =   9.5401299806029E-04
(PID.TID 0000.0001) %MON dynstat_vvel_sd              =   2.2657989376493E-02
(PID.TID 0000.0001) %MON dynstat_vvel_del2            =   1.3796586946755E-05
(PID.TID 0000.0001) %MON dynstat_wvel_max             =   1.4361425628248E-03
(PID.TID 0000.0001) %MON dynstat_wvel_min             =  -1.4269689043802E-03
(PID.TID 0000.0001) %MON dynstat_wvel_mean            =   3.0445691045086E-08
(PID.TID 0000.0001) %MON dynstat_wvel_sd              =   2.6312516255290E-05
(PID.TID 0000.0001) %MON dynstat_wvel_del2            =   2.9884463733930E-08
(PID.TID 0000.0001) %MON dynstat_theta_max            =   3.2539058195571E+01
(PID.TID 0000.0001) %MON dynstat_theta_min            =  -2.0416161161946E+00
(PID.TID 0000.0001) %MON dynstat_theta_mean           =   3.5904215482033E+00
(PID.TID 0000.0001) %MON dynstat_theta_sd             =   4.4360042059807E+00
(PID.TID 0000.0001) %MON dynstat_theta_del2           =   1.0497404016269E-04
(PID.TID 0000.0001) %MON dynstat_salt_max             =   4.0711540531886E+01
(PID.TID 0000.0001) %MON dynstat_salt_min             =   1.1105654506088E+01
(PID.TID 0000.0001) %MON dynstat_salt_mean            =   3.4725470671506E+01
(PID.TID 0000.0001) %MON dynstat_salt_sd              =   3.7345985406840E-01
(PID.TID 0000.0001) %MON dynstat_salt_del2            =   2.8935922093747E-05
(PID.TID 0000.0001) %MON dynstat_sst_max              =   3.2496176025882E+01
(PID.TID 0000.0001) %MON dynstat_sst_min              =  -1.9184607582552E+00
(PID.TID 0000.0001) %MON dynstat_sst_mean             =   1.8447788230923E+01
(PID.TID 0000.0001) %MON dynstat_sst_sd               =   1.0153723682167E+01
(PID.TID 0000.0001) %MON dynstat_sst_del2             =   8.6590245281198E-04
(PID.TID 0000.0001) %MON dynstat_sss_max              =   3.8532960178514E+01
(PID.TID 0000.0001) %MON dynstat_sss_min              =   1.1105654506088E+01
(PID.TID 0000.0001) %MON dynstat_sss_mean             =   3.4629542175380E+01
(PID.TID 0000.0001) %MON dynstat_sss_sd               =   9.6915960778024E-01
(PID.TID 0000.0001) %MON dynstat_sss_del2             =   7.4743031449489E-04
(PID.TID 0000.0001) %MON forcing_qnet_max             =   3.1125246582031E+03
(PID.TID 0000.0001) %MON forcing_qnet_min             =  -1.0943303222656E+03
(PID.TID 0000.0001) %MON forcing_qnet_mean            =   1.7994633451672E+01
(PID.TID 0000.0001) %MON forcing_qnet_sd              =   1.8154261585526E+02
(PID.TID 0000.0001) %MON forcing_qnet_del2            =   5.0873408437419E-01
(PID.TID 0000.0001) %MON forcing_qsw_max              =   0.0000000000000E+00
(PID.TID 0000.0001) %MON forcing_qsw_min              =  -4.3474306372212E+02
(PID.TID 0000.0001) %MON forcing_qsw_mean             =  -6.4370058719991E+01
(PID.TID 0000.0001) %MON forcing_qsw_sd               =   1.1348983360156E+02
(PID.TID 0000.0001) %MON forcing_qsw_del2             =   1.7847281925384E-01
(PID.TID 0000.0001) %MON forcing_empmr_max            =   4.8989532515407E-03
(PID.TID 0000.0001) %MON forcing_empmr_min            =  -9.2438474297523E-02
(PID.TID 0000.0001) %MON forcing_empmr_mean           =  -7.7113116457675E-06
(PID.TID 0000.0001) %MON forcing_empmr_sd             =   3.9641214916074E-04
(PID.TID 0000.0001) %MON forcing_empmr_del2           =   3.0356450878348E-06
(PID.TID 0000.0001) %MON forcing_fu_max               =   9.8096352815628E-01
(PID.TID 0000.0001) %MON forcing_fu_min               =  -6.9892960786819E-01
(PID.TID 0000.0001) %MON forcing_fu_mean              =   1.1255554371386E-02
(PID.TID 0000.0001) %MON forcing_fu_sd                =   1.0195445128265E-01
(PID.TID 0000.0001) %MON forcing_fu_del2              =   1.3842267592058E-04
(PID.TID 0000.0001) %MON forcing_fv_max               =   8.9843246340752E-01
(PID.TID 0000.0001) %MON forcing_fv_min               =  -6.8863022021884E-01
(PID.TID 0000.0001) %MON forcing_fv_mean              =  -7.9890928745938E-03
(PID.TID 0000.0001) %MON forcing_fv_sd                =   1.0206136182228E-01
(PID.TID 0000.0001) %MON forcing_fv_del2              =   1.1463112195969E-04
(PID.TID 0000.0001) %MON trAdv_CFL_u_max              =   7.7292727979731E-02
(PID.TID 0000.0001) %MON trAdv_CFL_v_max              =   1.1499005279865E-01
(PID.TID 0000.0001) %MON trAdv_CFL_w_max              =   1.6260465928282E-01
(PID.TID 0000.0001) %MON advcfl_uvel_max              =   7.4731048316073E-02
(PID.TID 0000.0001) %MON advcfl_vvel_max              =   1.1882031405129E-01
(PID.TID 0000.0001) %MON advcfl_wvel_max              =   1.6525752724227E-01
(PID.TID 0000.0001) %MON advcfl_W_hf_max              =   1.7332475694034E-01
(PID.TID 0000.0001) %MON pe_b_mean                    =   5.6019958211281E-04
(PID.TID 0000.0001) %MON ke_max                       =   1.4054921622391E+00
(PID.TID 0000.0001) %MON ke_mean                      =   4.8336246414407E-04
(PID.TID 0000.0001) %MON ke_vol                       =   1.3349980973747E+18
(PID.TID 0000.0001) %MON vort_r_min                   =  -3.1189192740731E-05
(PID.TID 0000.0001) %MON vort_r_max                   =   4.7452335302610E-05
(PID.TID 0000.0001) %MON vort_a_mean                  =  -1.9727864647440E-05
(PID.TID 0000.0001) %MON vort_a_sd                    =   7.4543162459691E-05
(PID.TID 0000.0001) %MON vort_p_mean                  =  -2.1760527400196E-05
(PID.TID 0000.0001) %MON vort_p_sd                    =   9.7242495939657E-05
(PID.TID 0000.0001) %MON surfExpan_theta_mean         =  -4.0629760369864E-08
(PID.TID 0000.0001) %MON surfExpan_salt_mean          =   5.6501529787256E-09
(PID.TID 0000.0001) // =======================================================
(PID.TID 0000.0001) // End MONITOR dynamic field statistics
(PID.TID 0000.0001) // =======================================================
 cg2d: Sum(rhs),rhsMax =  -1.32326631711125E+00  4.94310295853962E-02
 cg2d: Sum(rhs),rhsMax =  -1.37507798486839E+00  4.92347441677577E-02
(PID.TID 0000.0001)      cg2d_init_res =   1.24848179272363E-01
(PID.TID 0000.0001)      cg2d_iters(min,last) =      -1      96
(PID.TID 0000.0001)      cg2d_last_res =   6.84809980318087E-06
(PID.TID 0000.0001) // =======================================================
(PID.TID 0000.0001) // Begin MONITOR dynamic field statistics
(PID.TID 0000.0001) // =======================================================
(PID.TID 0000.0001) %MON time_tsnumber                =                    70
(PID.TID 0000.0001) %MON time_secondsf                =   2.5200000000000E+05
(PID.TID 0000.0001) %MON dynstat_eta_max              =   1.0640144578284E+00
(PID.TID 0000.0001) %MON dynstat_eta_min              =  -1.9748474742217E+00
(PID.TID 0000.0001) %MON dynstat_eta_mean             =   6.9596973390523E-04
(PID.TID 0000.0001) %MON dynstat_eta_sd               =   6.5182996135990E-01
(PID.TID 0000.0001) %MON dynstat_eta_del2             =   7.7417084793775E-05
(PID.TID 0000.0001) %MON dynstat_uvel_max             =   1.1244901233306E+00
(PID.TID 0000.0001) %MON dynstat_uvel_min             =  -1.1056977960922E+00
(PID.TID 0000.0001) %MON dynstat_uvel_mean            =   1.3238376445387E-03
(PID.TID 0000.0001) %MON dynstat_uvel_sd              =   2.2044723917087E-02
(PID.TID 0000.0001) %MON dynstat_uvel_del2            =   1.3482069461066E-05
(PID.TID 0000.0001) %MON dynstat_vvel_max             =   1.6563442125213E+00
(PID.TID 0000.0001) %MON dynstat_vvel_min             =  -8.3665157324255E-01
(PID.TID 0000.0001) %MON dynstat_vvel_mean            =   9.5704472758796E-04
(PID.TID 0000.0001) %MON dynstat_vvel_sd              =   2.2625129741770E-02
(PID.TID 0000.0001) %MON dynstat_vvel_del2            =   1.3700989452390E-05
(PID.TID 0000.0001) %MON dynstat_wvel_max             =   1.2997149576630E-03
(PID.TID 0000.0001) %MON dynstat_wvel_min             =  -1.3789264045936E-03
(PID.TID 0000.0001) %MON dynstat_wvel_mean            =   2.9141185786687E-08
(PID.TID 0000.0001) %MON dynstat_wvel_sd              =   2.6138672195529E-05
(PID.TID 0000.0001) %MON dynstat_wvel_del2            =   2.9008324711211E-08
(PID.TID 0000.0001) %MON dynstat_theta_max            =   3.2520824075017E+01
(PID.TID 0000.0001) %MON dynstat_theta_min            =  -2.0416161862729E+00
(PID.TID 0000.0001) %MON dynstat_theta_mean           =   3.5904143653597E+00
(PID.TID 0000.0001) %MON dynstat_theta_sd             =   4.4359686495303E+00
(PID.TID 0000.0001) %MON dynstat_theta_del2           =   1.0489030376161E-04
(PID.TID 0000.0001) %MON dynstat_salt_max             =   4.0711539691173E+01
(PID.TID 0000.0001) %MON dynstat_salt_min             =   1.0544815788028E+01
(PID.TID 0000.0001) %MON dynstat_salt_mean            =   3.4725465861911E+01
(PID.TID 0000.0001) %MON dynstat_salt_sd              =   3.7344987387910E-01
(PID.TID 0000.0001) %MON dynstat_salt_del2            =   2.8897179601582E-05
(PID.TID 0000.0001) %MON dynstat_sst_max              =   3.2488245006839E+01
(PID.TID 0000.0001) %MON dynstat_sst_min              =  -1.9177750963066E+00
(PID.TID 0000.0001) %MON dynstat_sst_mean             =   1.8447720616094E+01
(PID.TID 0000.0001) %MON dynstat_sst_sd               =   1.0153867509763E+01
(PID.TID 0000.0001) %MON dynstat_sst_del2             =   8.6526881274775E-04
(PID.TID 0000.0001) %MON dynstat_sss_max              =   3.8512795568223E+01
(PID.TID 0000.0001) %MON dynstat_sss_min              =   1.0544815788028E+01
(PID.TID 0000.0001) %MON dynstat_sss_mean             =   3.4629523195500E+01
(PID.TID 0000.0001) %MON dynstat_sss_sd               =   9.6954210364363E-01
(PID.TID 0000.0001) %MON dynstat_sss_del2             =   7.4701712240239E-04
(PID.TID 0000.0001) %MON forcing_qnet_max             =   2.3806027832031E+03
(PID.TID 0000.0001) %MON forcing_qnet_min             =  -1.5724448242188E+03
(PID.TID 0000.0001) %MON forcing_qnet_mean            =   1.3995884287629E+01
(PID.TID 0000.0001) %MON forcing_qnet_sd              =   1.8414141216892E+02
(PID.TID 0000.0001) %MON forcing_qnet_del2            =   5.3548622444793E-01
(PID.TID 0000.0001) %MON forcing_qsw_max              =   0.0000000000000E+00
(PID.TID 0000.0001) %MON forcing_qsw_min              =  -4.4096131608053E+02
(PID.TID 0000.0001) %MON forcing_qsw_mean             =  -6.6276320725055E+01
(PID.TID 0000.0001) %MON forcing_qsw_sd               =   1.1515668839707E+02
(PID.TID 0000.0001) %MON forcing_qsw_del2             =   1.7935254327879E-01
(PID.TID 0000.0001) %MON forcing_empmr_max            =   5.1056588999927E-03
(PID.TID 0000.0001) %MON forcing_empmr_min            =  -9.9338002502918E-02
(PID.TID 0000.0001) %MON forcing_empmr_mean           =  -7.4955493952419E-06
(PID.TID 0000.0001) %MON forcing_empmr_sd             =   4.1313332867183E-04
(PID.TID 0000.0001) %MON forcing_empmr_del2           =   2.9893774773412E-06
(PID.TID 0000.0001) %MON forcing_fu_max               =   9.6800884604454E-01
(PID.TID 0000.0001) %MON forcing_fu_min               =  -6.9300115108490E-01
(PID.TID 0000.0001) %MON forcing_fu_mean              =   1.1151407166207E-02
(PID.TID 0000.0001) %MON forcing_fu_sd                =   1.0163084124691E-01
(PID.TID 0000.0001) %MON forcing_fu_del2              =   1.3809093228071E-04
(PID.TID 0000.0001) %MON forcing_fv_max               =   9.1409236192703E-01
(PID.TID 0000.0001) %MON forcing_fv_min               =  -6.9376088167600E-01
(PID.TID 0000.0001) %MON forcing_fv_mean              =  -8.0438047700852E-03
(PID.TID 0000.0001) %MON forcing_fv_sd                =   1.0187362267650E-01
(PID.TID 0000.0001) %MON forcing_fv_del2              =   1.1425529412048E-04
(PID.TID 0000.0001) %MON trAdv_CFL_u_max              =   7.5751696694472E-02
(PID.TID 0000.0001) %MON trAdv_CFL_v_max              =   1.1378512597715E-01
(PID.TID 0000.0001) %MON trAdv_CFL_w_max              =   1.6188827369796E-01
(PID.TID 0000.0001) %MON advcfl_uvel_max              =   7.3174706240020E-02
(PID.TID 0000.0001) %MON advcfl_vvel_max              =   1.1760642955444E-01
(PID.TID 0000.0001) %MON advcfl_wvel_max              =   1.6457446624044E-01
(PID.TID 0000.0001) %MON advcfl_W_hf_max              =   1.7260837266650E-01
(PID.TID 0000.0001) %MON pe_b_mean                    =   5.5889127926919E-04
(PID.TID 0000.0001) %MON ke_max                       =   1.3733735789093E+00
(PID.TID 0000.0001) %MON ke_mean                      =   4.8245060109439E-04
(PID.TID 0000.0001) %MON ke_vol                       =   1.3349981167177E+18
(PID.TID 0000.0001) %MON vort_r_min                   =  -3.0598699747170E-05
(PID.TID 0000.0001) %MON vort_r_max                   =   4.6880592023010E-05
(PID.TID 0000.0001) %MON vort_a_mean                  =  -1.9727864647440E-05
(PID.TID 0000.0001) %MON vort_a_sd                    =   7.4543155637593E-05
(PID.TID 0000.0001) %MON vort_p_mean                  =  -2.1760527299100E-05
(PID.TID 0000.0001) %MON vort_p_sd                    =   9.7242463557307E-05
(PID.TID 0000.0001) %MON surfExpan_theta_mean         =   1.3491740405721E-08
(PID.TID 0000.0001) %MON surfExpan_salt_mean          =   1.6138212297818E-08
(PID.TID 0000.0001) // =======================================================
(PID.TID 0000.0001) // End MONITOR dynamic field statistics
(PID.TID 0000.0001) // =======================================================
 cg2d: Sum(rhs),rhsMax =  -1.42475668470785E+00  4.90597686973695E-02
 cg2d: Sum(rhs),rhsMax =  -1.47584082518940E+00  4.89139149382839E-02
(PID.TID 0000.0001)      cg2d_init_res =   1.23329194218663E-01
(PID.TID 0000.0001)      cg2d_iters(min,last) =      -1      94
(PID.TID 0000.0001)      cg2d_last_res =   6.64832304577730E-06
(PID.TID 0000.0001) // =======================================================
(PID.TID 0000.0001) // Begin MONITOR dynamic field statistics
(PID.TID 0000.0001) // =======================================================
(PID.TID 0000.0001) %MON time_tsnumber                =                    72
(PID.TID 0000.0001) %MON time_secondsf                =   2.5920000000000E+05
(PID.TID 0000.0001) %MON dynstat_eta_max              =   1.0626071836537E+00
(PID.TID 0000.0001) %MON dynstat_eta_min              =  -1.9786935496866E+00
(PID.TID 0000.0001) %MON dynstat_eta_mean             =   7.4696894117749E-04
(PID.TID 0000.0001) %MON dynstat_eta_sd               =   6.5110773024966E-01
(PID.TID 0000.0001) %MON dynstat_eta_del2             =   7.6994150550888E-05
(PID.TID 0000.0001) %MON dynstat_uvel_max             =   1.1360521067905E+00
(PID.TID 0000.0001) %MON dynstat_uvel_min             =  -1.0821519872857E+00
(PID.TID 0000.0001) %MON dynstat_uvel_mean            =   1.3078852155938E-03
(PID.TID 0000.0001) %MON dynstat_uvel_sd              =   2.2029802637818E-02
(PID.TID 0000.0001) %MON dynstat_uvel_del2            =   1.3387664906446E-05
(PID.TID 0000.0001) %MON dynstat_vvel_max             =   1.6382958046164E+00
(PID.TID 0000.0001) %MON dynstat_vvel_min             =  -8.3379672598801E-01
(PID.TID 0000.0001) %MON dynstat_vvel_mean            =   9.6283758663695E-04
(PID.TID 0000.0001) %MON dynstat_vvel_sd              =   2.2601384359839E-02
(PID.TID 0000.0001) %MON dynstat_vvel_del2            =   1.3616341934299E-05
(PID.TID 0000.0001) %MON dynstat_wvel_max             =   1.0863471520155E-03
(PID.TID 0000.0001) %MON dynstat_wvel_min             =  -1.3271748356111E-03
(PID.TID 0000.0001) %MON dynstat_wvel_mean            =   2.6937236785743E-08
(PID.TID 0000.0001) %MON dynstat_wvel_sd              =   2.5973819440459E-05
(PID.TID 0000.0001) %MON dynstat_wvel_del2            =   2.8169934072248E-08
(PID.TID 0000.0001) %MON dynstat_theta_max            =   3.2504661303818E+01
(PID.TID 0000.0001) %MON dynstat_theta_min            =  -2.0416173610476E+00
(PID.TID 0000.0001) %MON dynstat_theta_mean           =   3.5904084330440E+00
(PID.TID 0000.0001) %MON dynstat_theta_sd             =   4.4359388868634E+00
(PID.TID 0000.0001) %MON dynstat_theta_del2           =   1.0480958334826E-04
(PID.TID 0000.0001) %MON dynstat_salt_max             =   4.0711538993181E+01
(PID.TID 0000.0001) %MON dynstat_salt_min             =   1.0016689360961E+01
(PID.TID 0000.0001) %MON dynstat_salt_mean            =   3.4725461259457E+01
(PID.TID 0000.0001) %MON dynstat_salt_sd              =   3.7344044313630E-01
(PID.TID 0000.0001) %MON dynstat_salt_del2            =   2.8836770924368E-05
(PID.TID 0000.0001) %MON dynstat_sst_max              =   3.2479002385662E+01
(PID.TID 0000.0001) %MON dynstat_sst_min              =  -1.9178905515454E+00
(PID.TID 0000.0001) %MON dynstat_sst_mean             =   1.8447888144156E+01
(PID.TID 0000.0001) %MON dynstat_sst_sd               =   1.0154163698581E+01
(PID.TID 0000.0001) %MON dynstat_sst_del2             =   8.6512457887283E-04
(PID.TID 0000.0001) %MON dynstat_sss_max              =   3.8493300547122E+01
(PID.TID 0000.0001) %MON dynstat_sss_min              =   1.0016689360961E+01
(PID.TID 0000.0001) %MON dynstat_sss_mean             =   3.4629516791106E+01
(PID.TID 0000.0001) %MON dynstat_sss_sd               =   9.6991251809708E-01
(PID.TID 0000.0001) %MON dynstat_sss_del2             =   7.4525135534232E-04
(PID.TID 0000.0001) %MON forcing_qnet_max             =   2.6681989746094E+03
(PID.TID 0000.0001) %MON forcing_qnet_min             =  -1.5369738769531E+03
(PID.TID 0000.0001) %MON forcing_qnet_mean            =   1.2509804528656E+01
(PID.TID 0000.0001) %MON forcing_qnet_sd              =   1.8610220273422E+02
(PID.TID 0000.0001) %MON forcing_qnet_del2            =   5.6764620890701E-01
(PID.TID 0000.0001) %MON forcing_qsw_max              =   0.0000000000000E+00
(PID.TID 0000.0001) %MON forcing_qsw_min              =  -4.4361085125336E+02
(PID.TID 0000.0001) %MON forcing_qsw_mean             =  -6.7707113790680E+01
(PID.TID 0000.0001) %MON forcing_qsw_sd               =   1.1551560354827E+02
(PID.TID 0000.0001) %MON forcing_qsw_del2             =   1.8000847867174E-01
(PID.TID 0000.0001) %MON forcing_empmr_max            =   4.7989911399782E-03
(PID.TID 0000.0001) %MON forcing_empmr_min            =  -9.6322931349277E-02
(PID.TID 0000.0001) %MON forcing_empmr_mean           =  -7.3902986501857E-06
(PID.TID 0000.0001) %MON forcing_empmr_sd             =   4.0585461231635E-04
(PID.TID 0000.0001) %MON forcing_empmr_del2           =   2.9185141810157E-06
(PID.TID 0000.0001) %MON forcing_fu_max               =   9.5895507931709E-01
(PID.TID 0000.0001) %MON forcing_fu_min               =  -6.8915715813637E-01
(PID.TID 0000.0001) %MON forcing_fu_mean              =   1.1076902853042E-02
(PID.TID 0000.0001) %MON forcing_fu_sd                =   1.0133492882254E-01
(PID.TID 0000.0001) %MON forcing_fu_del2              =   1.3749894569907E-04
(PID.TID 0000.0001) %MON forcing_fv_max               =   9.2671766877174E-01
(PID.TID 0000.0001) %MON forcing_fv_min               =  -7.5015632010744E-01
(PID.TID 0000.0001) %MON forcing_fv_mean              =  -8.1191342635215E-03
(PID.TID 0000.0001) %MON forcing_fv_sd                =   1.0193821632412E-01
(PID.TID 0000.0001) %MON forcing_fv_del2              =   1.1408823971282E-04
(PID.TID 0000.0001) %MON trAdv_CFL_u_max              =   7.4208411670092E-02
(PID.TID 0000.0001) %MON trAdv_CFL_v_max              =   1.1251361979156E-01
(PID.TID 0000.0001) %MON trAdv_CFL_w_max              =   1.6002074456050E-01
(PID.TID 0000.0001) %MON advcfl_uvel_max              =   7.1616452575511E-02
(PID.TID 0000.0001) %MON advcfl_vvel_max              =   1.1632492731790E-01
(PID.TID 0000.0001) %MON advcfl_wvel_max              =   1.6279379773176E-01
(PID.TID 0000.0001) %MON advcfl_W_hf_max              =   1.7074084787750E-01
(PID.TID 0000.0001) %MON pe_b_mean                    =   5.5765354683527E-04
(PID.TID 0000.0001) %MON ke_max                       =   1.3404755479783E+00
(PID.TID 0000.0001) %MON ke_mean                      =   4.8160074818694E-04
(PID.TID 0000.0001) %MON ke_vol                       =   1.3349981351080E+18
(PID.TID 0000.0001) %MON vort_r_min                   =  -3.0000269063432E-05
(PID.TID 0000.0001) %MON vort_r_max                   =   4.6282355230574E-05
(PID.TID 0000.0001) %MON vort_a_mean                  =  -1.9727864647440E-05
(PID.TID 0000.0001) %MON vort_a_sd                    =   7.4543150049959E-05
(PID.TID 0000.0001) %MON vort_p_mean                  =  -2.1760527219302E-05
(PID.TID 0000.0001) %MON vort_p_sd                    =   9.7242448385514E-05
(PID.TID 0000.0001) %MON surfExpan_theta_mean         =   1.6191533535874E-08
(PID.TID 0000.0001) %MON surfExpan_salt_mean          =   2.2128083868114E-08
(PID.TID 0000.0001) // =======================================================
(PID.TID 0000.0001) // End MONITOR dynamic field statistics
(PID.TID 0000.0001) // =======================================================
 cg2d: Sum(rhs),rhsMax =  -1.52153809288126E+00  4.88002925533838E-02
 cg2d: Sum(rhs),rhsMax =  -1.56732920764639E+00  4.87095271951150E-02
(PID.TID 0000.0001)      cg2d_init_res =   1.21477362973621E-01
(PID.TID 0000.0001)      cg2d_iters(min,last) =      -1      90
(PID.TID 0000.0001)      cg2d_last_res =   6.52730476296196E-06
(PID.TID 0000.0001) // =======================================================
(PID.TID 0000.0001) // Begin MONITOR dynamic field statistics
(PID.TID 0000.0001) // =======================================================
(PID.TID 0000.0001) %MON time_tsnumber                =                    74
(PID.TID 0000.0001) %MON time_secondsf                =   2.6640000000000E+05
(PID.TID 0000.0001) %MON dynstat_eta_max              =   1.0612339738848E+00
(PID.TID 0000.0001) %MON dynstat_eta_min              =  -1.9823366852839E+00
(PID.TID 0000.0001) %MON dynstat_eta_mean             =   7.9327405688326E-04
(PID.TID 0000.0001) %MON dynstat_eta_sd               =   6.5038410501019E-01
(PID.TID 0000.0001) %MON dynstat_eta_del2             =   7.6582295719098E-05
(PID.TID 0000.0001) %MON dynstat_uvel_max             =   1.1436244428723E+00
(PID.TID 0000.0001) %MON dynstat_uvel_min             =  -1.0592889110209E+00
(PID.TID 0000.0001) %MON dynstat_uvel_mean            =   1.2811093798324E-03
(PID.TID 0000.0001) %MON dynstat_uvel_sd              =   2.2011310672554E-02
(PID.TID 0000.0001) %MON dynstat_uvel_del2            =   1.3297247923170E-05
(PID.TID 0000.0001) %MON dynstat_vvel_max             =   1.6194433715760E+00
(PID.TID 0000.0001) %MON dynstat_vvel_min             =  -8.3140184367257E-01
(PID.TID 0000.0001) %MON dynstat_vvel_mean            =   9.6833860874086E-04
(PID.TID 0000.0001) %MON dynstat_vvel_sd              =   2.2578658029827E-02
(PID.TID 0000.0001) %MON dynstat_vvel_del2            =   1.3541016563755E-05
(PID.TID 0000.0001) %MON dynstat_wvel_max             =   8.6677334969201E-04
(PID.TID 0000.0001) %MON dynstat_wvel_min             =  -1.2653515911405E-03
(PID.TID 0000.0001) %MON dynstat_wvel_mean            =   2.4632330619755E-08
(PID.TID 0000.0001) %MON dynstat_wvel_sd              =   2.5837109118556E-05
(PID.TID 0000.0001) %MON dynstat_wvel_del2            =   2.7401444542290E-08
(PID.TID 0000.0001) %MON dynstat_theta_max            =   3.2488304931382E+01
(PID.TID 0000.0001) %MON dynstat_theta_min            =  -2.0416193262980E+00
(PID.TID 0000.0001) %MON dynstat_theta_mean           =   3.5904039449397E+00
(PID.TID 0000.0001) %MON dynstat_theta_sd             =   4.4359165761590E+00
(PID.TID 0000.0001) %MON dynstat_theta_del2           =   1.0473085397813E-04
(PID.TID 0000.0001) %MON dynstat_salt_max             =   4.0711538553538E+01
(PID.TID 0000.0001) %MON dynstat_salt_min             =   9.5954365268193E+00
(PID.TID 0000.0001) %MON dynstat_salt_mean            =   3.4725456905853E+01
(PID.TID 0000.0001) %MON dynstat_salt_sd              =   3.7343150001413E-01
(PID.TID 0000.0001) %MON dynstat_salt_del2            =   2.8733833897438E-05
(PID.TID 0000.0001) %MON dynstat_sst_max              =   3.2469706447332E+01
(PID.TID 0000.0001) %MON dynstat_sst_min              =  -1.9180888100888E+00
(PID.TID 0000.0001) %MON dynstat_sst_mean             =   1.8448334809888E+01
(PID.TID 0000.0001) %MON dynstat_sst_sd               =   1.0154748812784E+01
(PID.TID 0000.0001) %MON dynstat_sst_del2             =   8.6485944075405E-04
(PID.TID 0000.0001) %MON dynstat_sss_max              =   3.8474467909267E+01
(PID.TID 0000.0001) %MON dynstat_sss_min              =   9.5954365268193E+00
(PID.TID 0000.0001) %MON dynstat_sss_mean             =   3.4629542211900E+01
(PID.TID 0000.0001) %MON dynstat_sss_sd               =   9.7025951043488E-01
(PID.TID 0000.0001) %MON dynstat_sss_del2             =   7.4053940642036E-04
(PID.TID 0000.0001) %MON forcing_qnet_max             =   4.2349151847025E+03
(PID.TID 0000.0001) %MON forcing_qnet_min             =  -1.0379587184639E+03
(PID.TID 0000.0001) %MON forcing_qnet_mean            =   8.5869779144141E+00
(PID.TID 0000.0001) %MON forcing_qnet_sd              =   1.8487844802290E+02
(PID.TID 0000.0001) %MON forcing_qnet_del2            =   5.4590775936557E-01
(PID.TID 0000.0001) %MON forcing_qsw_max              =   0.0000000000000E+00
(PID.TID 0000.0001) %MON forcing_qsw_min              =  -4.4321037794644E+02
(PID.TID 0000.0001) %MON forcing_qsw_mean             =  -6.9853847460712E+01
(PID.TID 0000.0001) %MON forcing_qsw_sd               =   1.1511986015328E+02
(PID.TID 0000.0001) %MON forcing_qsw_del2             =   1.7965857759544E-01
(PID.TID 0000.0001) %MON forcing_empmr_max            =   5.3396266885102E-03
(PID.TID 0000.0001) %MON forcing_empmr_min            =  -9.4123594462872E-02
(PID.TID 0000.0001) %MON forcing_empmr_mean           =  -6.6245611739588E-06
(PID.TID 0000.0001) %MON forcing_empmr_sd             =   3.8848611167201E-04
(PID.TID 0000.0001) %MON forcing_empmr_del2           =   2.6378934936484E-06
(PID.TID 0000.0001) %MON forcing_fu_max               =   9.4676503539085E-01
(PID.TID 0000.0001) %MON forcing_fu_min               =  -6.9090077280998E-01
(PID.TID 0000.0001) %MON forcing_fu_mean              =   1.0990557977088E-02
(PID.TID 0000.0001) %MON forcing_fu_sd                =   1.0092361296665E-01
(PID.TID 0000.0001) %MON forcing_fu_del2              =   1.3667494087513E-04
(PID.TID 0000.0001) %MON forcing_fv_max               =   9.5174926519394E-01
(PID.TID 0000.0001) %MON forcing_fv_min               =  -7.5443222449395E-01
(PID.TID 0000.0001) %MON forcing_fv_mean              =  -8.2430124593963E-03
(PID.TID 0000.0001) %MON forcing_fv_sd                =   1.0175313363403E-01
(PID.TID 0000.0001) %MON forcing_fv_del2              =   1.1397585845413E-04
(PID.TID 0000.0001) %MON trAdv_CFL_u_max              =   7.2709422495186E-02
(PID.TID 0000.0001) %MON trAdv_CFL_v_max              =   1.1118584628274E-01
(PID.TID 0000.0001) %MON trAdv_CFL_w_max              =   1.5782375975297E-01
(PID.TID 0000.0001) %MON advcfl_uvel_max              =   7.0103381919736E-02
(PID.TID 0000.0001) %MON advcfl_vvel_max              =   1.1498633638883E-01
(PID.TID 0000.0001) %MON advcfl_wvel_max              =   1.6069921589727E-01
(PID.TID 0000.0001) %MON advcfl_W_hf_max              =   1.6854385271318E-01
(PID.TID 0000.0001) %MON pe_b_mean                    =   5.5641479867933E-04
(PID.TID 0000.0001) %MON ke_max                       =   1.3067119360763E+00
(PID.TID 0000.0001) %MON ke_mean                      =   4.8068463679023E-04
(PID.TID 0000.0001) %MON ke_vol                       =   1.3349981526450E+18
(PID.TID 0000.0001) %MON vort_r_min                   =  -2.9412901078027E-05
(PID.TID 0000.0001) %MON vort_r_max                   =   4.5660849512145E-05
(PID.TID 0000.0001) %MON vort_a_mean                  =  -1.9727864647440E-05
(PID.TID 0000.0001) %MON vort_a_sd                    =   7.4543145817193E-05
(PID.TID 0000.0001) %MON vort_p_mean                  =  -2.1760527142924E-05
(PID.TID 0000.0001) %MON vort_p_sd                    =   9.7242464318638E-05
(PID.TID 0000.0001) %MON surfExpan_theta_mean         =   9.7283880978012E-09
(PID.TID 0000.0001) %MON surfExpan_salt_mean          =   2.3813357299584E-08
(PID.TID 0000.0001) // =======================================================
(PID.TID 0000.0001) // End MONITOR dynamic field statistics
(PID.TID 0000.0001) // =======================================================
 cg2d: Sum(rhs),rhsMax =  -1.60973591496242E+00  4.86301128311358E-02
 cg2d: Sum(rhs),rhsMax =  -1.64946221342699E+00  4.85422686782603E-02
(PID.TID 0000.0001)      cg2d_init_res =   1.19382371930393E-01
(PID.TID 0000.0001)      cg2d_iters(min,last) =      -1      89
(PID.TID 0000.0001)      cg2d_last_res =   6.82548686500751E-06
(PID.TID 0000.0001) // =======================================================
(PID.TID 0000.0001) // Begin MONITOR dynamic field statistics
(PID.TID 0000.0001) // =======================================================
(PID.TID 0000.0001) %MON time_tsnumber                =                    76
(PID.TID 0000.0001) %MON time_secondsf                =   2.7360000000000E+05
(PID.TID 0000.0001) %MON dynstat_eta_max              =   1.0599430249323E+00
(PID.TID 0000.0001) %MON dynstat_eta_min              =  -1.9856936534308E+00
(PID.TID 0000.0001) %MON dynstat_eta_mean             =   8.3484412549547E-04
(PID.TID 0000.0001) %MON dynstat_eta_sd               =   6.4964378271469E-01
(PID.TID 0000.0001) %MON dynstat_eta_del2             =   7.6206097546555E-05
(PID.TID 0000.0001) %MON dynstat_uvel_max             =   1.1478806688831E+00
(PID.TID 0000.0001) %MON dynstat_uvel_min             =  -1.0374424604064E+00
(PID.TID 0000.0001) %MON dynstat_uvel_mean            =   1.2468966324251E-03
(PID.TID 0000.0001) %MON dynstat_uvel_sd              =   2.1984853639301E-02
(PID.TID 0000.0001) %MON dynstat_uvel_del2            =   1.3217693495290E-05
(PID.TID 0000.0001) %MON dynstat_vvel_max             =   1.5997315410447E+00
(PID.TID 0000.0001) %MON dynstat_vvel_min             =  -8.2908056716594E-01
(PID.TID 0000.0001) %MON dynstat_vvel_mean            =   9.7182110990632E-04
(PID.TID 0000.0001) %MON dynstat_vvel_sd              =   2.2564297533637E-02
(PID.TID 0000.0001) %MON dynstat_vvel_del2            =   1.3471129789638E-05
(PID.TID 0000.0001) %MON dynstat_wvel_max             =   7.3911103389869E-04
(PID.TID 0000.0001) %MON dynstat_wvel_min             =  -1.1883731527419E-03
(PID.TID 0000.0001) %MON dynstat_wvel_mean            =   2.2256454401310E-08
(PID.TID 0000.0001) %MON dynstat_wvel_sd              =   2.5726209204134E-05
(PID.TID 0000.0001) %MON dynstat_wvel_del2            =   2.6731178014483E-08
(PID.TID 0000.0001) %MON dynstat_theta_max            =   3.2464097703990E+01
(PID.TID 0000.0001) %MON dynstat_theta_min            =  -2.0416218884609E+00
(PID.TID 0000.0001) %MON dynstat_theta_mean           =   3.5904009402426E+00
(PID.TID 0000.0001) %MON dynstat_theta_sd             =   4.4359015905806E+00
(PID.TID 0000.0001) %MON dynstat_theta_del2           =   1.0465580230984E-04
(PID.TID 0000.0001) %MON dynstat_salt_max             =   4.0711538392783E+01
(PID.TID 0000.0001) %MON dynstat_salt_min             =   9.0292861462229E+00
(PID.TID 0000.0001) %MON dynstat_salt_mean            =   3.4725452805813E+01
(PID.TID 0000.0001) %MON dynstat_salt_sd              =   3.7342350563229E-01
(PID.TID 0000.0001) %MON dynstat_salt_del2            =   2.8617671112749E-05
(PID.TID 0000.0001) %MON dynstat_sst_max              =   3.2464082552845E+01
(PID.TID 0000.0001) %MON dynstat_sst_min              =  -1.9163681355104E+00
(PID.TID 0000.0001) %MON dynstat_sst_mean             =   1.8449062249755E+01
(PID.TID 0000.0001) %MON dynstat_sst_sd               =   1.0155563344144E+01
(PID.TID 0000.0001) %MON dynstat_sst_del2             =   8.6447133103170E-04
(PID.TID 0000.0001) %MON dynstat_sss_max              =   3.8456269068391E+01
(PID.TID 0000.0001) %MON dynstat_sss_min              =   9.0292861462229E+00
(PID.TID 0000.0001) %MON dynstat_sss_mean             =   3.4629597021769E+01
(PID.TID 0000.0001) %MON dynstat_sss_sd               =   9.7067543661325E-01
(PID.TID 0000.0001) %MON dynstat_sss_del2             =   7.3499819925406E-04
(PID.TID 0000.0001) %MON forcing_qnet_max             =   1.6339266285462E+03
(PID.TID 0000.0001) %MON forcing_qnet_min             =  -1.6298337402344E+03
(PID.TID 0000.0001) %MON forcing_qnet_mean            =   6.5049900931124E+00
(PID.TID 0000.0001) %MON forcing_qnet_sd              =   1.8220697061503E+02
(PID.TID 0000.0001) %MON forcing_qnet_del2            =   5.0594671709267E-01
(PID.TID 0000.0001) %MON forcing_qsw_max              =   0.0000000000000E+00
(PID.TID 0000.0001) %MON forcing_qsw_min              =  -4.3933392955562E+02
(PID.TID 0000.0001) %MON forcing_qsw_mean             =  -7.1303638331335E+01
(PID.TID 0000.0001) %MON forcing_qsw_sd               =   1.1448961081454E+02
(PID.TID 0000.0001) %MON forcing_qsw_del2             =   1.7937554433154E-01
(PID.TID 0000.0001) %MON forcing_empmr_max            =   5.1070149056613E-03
(PID.TID 0000.0001) %MON forcing_empmr_min            =  -1.0640340298414E-01
(PID.TID 0000.0001) %MON forcing_empmr_mean           =  -5.7471694179946E-06
(PID.TID 0000.0001) %MON forcing_empmr_sd             =   4.2630009913072E-04
(PID.TID 0000.0001) %MON forcing_empmr_del2           =   2.8067720408661E-06
(PID.TID 0000.0001) %MON forcing_fu_max               =   9.3173491954803E-01
(PID.TID 0000.0001) %MON forcing_fu_min               =  -6.9284662604332E-01
(PID.TID 0000.0001) %MON forcing_fu_mean              =   1.0926532897402E-02
(PID.TID 0000.0001) %MON forcing_fu_sd                =   1.0054260470975E-01
(PID.TID 0000.0001) %MON forcing_fu_del2              =   1.3581134908179E-04
(PID.TID 0000.0001) %MON forcing_fv_max               =   9.7781971096992E-01
(PID.TID 0000.0001) %MON forcing_fv_min               =  -7.6046657988392E-01
(PID.TID 0000.0001) %MON forcing_fv_mean              =  -8.3611256138166E-03
(PID.TID 0000.0001) %MON forcing_fv_sd                =   1.0167241228455E-01
(PID.TID 0000.0001) %MON forcing_fv_del2              =   1.1368606419339E-04
(PID.TID 0000.0001) %MON trAdv_CFL_u_max              =   7.1276723832051E-02
(PID.TID 0000.0001) %MON trAdv_CFL_v_max              =   1.0979719507355E-01
(PID.TID 0000.0001) %MON trAdv_CFL_w_max              =   1.5671613183664E-01
(PID.TID 0000.0001) %MON advcfl_uvel_max              =   6.8657591205720E-02
(PID.TID 0000.0001) %MON advcfl_vvel_max              =   1.1358672512974E-01
(PID.TID 0000.0001) %MON advcfl_wvel_max              =   1.5964324685760E-01
(PID.TID 0000.0001) %MON advcfl_W_hf_max              =   1.6743621719979E-01
(PID.TID 0000.0001) %MON pe_b_mean                    =   5.5514888694879E-04
(PID.TID 0000.0001) %MON ke_max                       =   1.2719939354825E+00
(PID.TID 0000.0001) %MON ke_mean                      =   4.7977237378203E-04
(PID.TID 0000.0001) %MON ke_vol                       =   1.3349981686266E+18
(PID.TID 0000.0001) %MON vort_r_min                   =  -2.8839442617903E-05
(PID.TID 0000.0001) %MON vort_r_max                   =   4.5013995819002E-05
(PID.TID 0000.0001) %MON vort_a_mean                  =  -1.9727864647440E-05
(PID.TID 0000.0001) %MON vort_a_sd                    =   7.4543143246288E-05
(PID.TID 0000.0001) %MON vort_p_mean                  =  -2.1760527070911E-05
(PID.TID 0000.0001) %MON vort_p_sd                    =   9.7242472204541E-05
(PID.TID 0000.0001) %MON surfExpan_theta_mean         =  -2.6073159889800E-08
(PID.TID 0000.0001) %MON surfExpan_salt_mean          =   2.6854523273665E-08
(PID.TID 0000.0001) // =======================================================
(PID.TID 0000.0001) // End MONITOR dynamic field statistics
(PID.TID 0000.0001) // =======================================================
 cg2d: Sum(rhs),rhsMax =  -1.69106807694338E+00  4.84351951538192E-02
 cg2d: Sum(rhs),rhsMax =  -1.73457997987535E+00  4.83038755907074E-02
(PID.TID 0000.0001)      cg2d_init_res =   1.17431540134787E-01
(PID.TID 0000.0001)      cg2d_iters(min,last) =      -1      93
(PID.TID 0000.0001)      cg2d_last_res =   6.76310016868667E-06
(PID.TID 0000.0001) // =======================================================
(PID.TID 0000.0001) // Begin MONITOR dynamic field statistics
(PID.TID 0000.0001) // =======================================================
(PID.TID 0000.0001) %MON time_tsnumber                =                    78
(PID.TID 0000.0001) %MON time_secondsf                =   2.8080000000000E+05
(PID.TID 0000.0001) %MON dynstat_eta_max              =   1.0587242670455E+00
(PID.TID 0000.0001) %MON dynstat_eta_min              =  -1.9888795811549E+00
(PID.TID 0000.0001) %MON dynstat_eta_mean             =   8.7792487430950E-04
(PID.TID 0000.0001) %MON dynstat_eta_sd               =   6.4888136594495E-01
(PID.TID 0000.0001) %MON dynstat_eta_del2             =   7.5838295125136E-05
(PID.TID 0000.0001) %MON dynstat_uvel_max             =   1.1504476471849E+00
(PID.TID 0000.0001) %MON dynstat_uvel_min             =  -1.0165199347149E+00
(PID.TID 0000.0001) %MON dynstat_uvel_mean            =   1.2089630321952E-03
(PID.TID 0000.0001) %MON dynstat_uvel_sd              =   2.1955179126962E-02
(PID.TID 0000.0001) %MON dynstat_uvel_del2            =   1.3149224083171E-05
(PID.TID 0000.0001) %MON dynstat_vvel_max             =   1.5793053934091E+00
(PID.TID 0000.0001) %MON dynstat_vvel_min             =  -8.2680221525928E-01
(PID.TID 0000.0001) %MON dynstat_vvel_mean            =   9.7290071192622E-04
(PID.TID 0000.0001) %MON dynstat_vvel_sd              =   2.2558831934837E-02
(PID.TID 0000.0001) %MON dynstat_vvel_del2            =   1.3407023136932E-05
(PID.TID 0000.0001) %MON dynstat_wvel_max             =   7.5349022674742E-04
(PID.TID 0000.0001) %MON dynstat_wvel_min             =  -1.0991077942730E-03
(PID.TID 0000.0001) %MON dynstat_wvel_mean            =   1.9341917251053E-08
(PID.TID 0000.0001) %MON dynstat_wvel_sd              =   2.5638383260019E-05
(PID.TID 0000.0001) %MON dynstat_wvel_del2            =   2.6137691110603E-08
(PID.TID 0000.0001) %MON dynstat_theta_max            =   3.2451964364977E+01
(PID.TID 0000.0001) %MON dynstat_theta_min            =  -2.0416248455909E+00
(PID.TID 0000.0001) %MON dynstat_theta_mean           =   3.5903991593985E+00
(PID.TID 0000.0001) %MON dynstat_theta_sd             =   4.4358926052384E+00
(PID.TID 0000.0001) %MON dynstat_theta_del2           =   1.0458460690843E-04
(PID.TID 0000.0001) %MON dynstat_salt_max             =   4.0711538496266E+01
(PID.TID 0000.0001) %MON dynstat_salt_min             =   8.4453245042524E+00
(PID.TID 0000.0001) %MON dynstat_salt_mean            =   3.4725448868461E+01
(PID.TID 0000.0001) %MON dynstat_salt_sd              =   3.7341634178035E-01
(PID.TID 0000.0001) %MON dynstat_salt_del2            =   2.8495124370126E-05
(PID.TID 0000.0001) %MON dynstat_sst_max              =   3.2451955139332E+01
(PID.TID 0000.0001) %MON dynstat_sst_min              =  -1.9157780970820E+00
(PID.TID 0000.0001) %MON dynstat_sst_mean             =   1.8449849520404E+01
(PID.TID 0000.0001) %MON dynstat_sst_sd               =   1.0156538836966E+01
(PID.TID 0000.0001) %MON dynstat_sst_del2             =   8.6389797697342E-04
(PID.TID 0000.0001) %MON dynstat_sss_max              =   3.8438694638010E+01
(PID.TID 0000.0001) %MON dynstat_sss_min              =   8.4453245042524E+00
(PID.TID 0000.0001) %MON dynstat_sss_mean             =   3.4629642630974E+01
(PID.TID 0000.0001) %MON dynstat_sss_sd               =   9.7114167571355E-01
(PID.TID 0000.0001) %MON dynstat_sss_del2             =   7.2892398977175E-04
(PID.TID 0000.0001) %MON forcing_qnet_max             =   1.8817695312500E+03
(PID.TID 0000.0001) %MON forcing_qnet_min             =  -1.0176537489907E+03
(PID.TID 0000.0001) %MON forcing_qnet_mean            =   2.9880293595365E+00
(PID.TID 0000.0001) %MON forcing_qnet_sd              =   1.7967507026419E+02
(PID.TID 0000.0001) %MON forcing_qnet_del2            =   4.9081814320091E-01
(PID.TID 0000.0001) %MON forcing_qsw_max              =   0.0000000000000E+00
(PID.TID 0000.0001) %MON forcing_qsw_min              =  -4.4115131721105E+02
(PID.TID 0000.0001) %MON forcing_qsw_mean             =  -7.3148383237472E+01
(PID.TID 0000.0001) %MON forcing_qsw_sd               =   1.1354460954462E+02
(PID.TID 0000.0001) %MON forcing_qsw_del2             =   1.7797926645118E-01
(PID.TID 0000.0001) %MON forcing_empmr_max            =   5.6475154124200E-03
(PID.TID 0000.0001) %MON forcing_empmr_min            =  -1.1447183042765E-01
(PID.TID 0000.0001) %MON forcing_empmr_mean           =  -6.2948295590886E-06
(PID.TID 0000.0001) %MON forcing_empmr_sd             =   4.5799068926219E-04
(PID.TID 0000.0001) %MON forcing_empmr_del2           =   3.0293059607783E-06
(PID.TID 0000.0001) %MON forcing_fu_max               =   9.1898909211159E-01
(PID.TID 0000.0001) %MON forcing_fu_min               =  -6.9187065958977E-01
(PID.TID 0000.0001) %MON forcing_fu_mean              =   1.0867060683759E-02
(PID.TID 0000.0001) %MON forcing_fu_sd                =   1.0015892758675E-01
(PID.TID 0000.0001) %MON forcing_fu_del2              =   1.3523839064047E-04
(PID.TID 0000.0001) %MON forcing_fv_max               =   9.8256120085716E-01
(PID.TID 0000.0001) %MON forcing_fv_min               =  -7.5820148681733E-01
(PID.TID 0000.0001) %MON forcing_fv_mean              =  -8.4962894619333E-03
(PID.TID 0000.0001) %MON forcing_fv_sd                =   1.0162979594136E-01
(PID.TID 0000.0001) %MON forcing_fv_del2              =   1.1344600082179E-04
(PID.TID 0000.0001) %MON trAdv_CFL_u_max              =   6.9904616100204E-02
(PID.TID 0000.0001) %MON trAdv_CFL_v_max              =   1.0835730902777E-01
(PID.TID 0000.0001) %MON trAdv_CFL_w_max              =   1.5694783273543E-01
(PID.TID 0000.0001) %MON advcfl_uvel_max              =   6.7272945530667E-02
(PID.TID 0000.0001) %MON advcfl_vvel_max              =   1.1213639477279E-01
(PID.TID 0000.0001) %MON advcfl_wvel_max              =   1.5986400248807E-01
(PID.TID 0000.0001) %MON advcfl_W_hf_max              =   1.6766792964890E-01
(PID.TID 0000.0001) %MON pe_b_mean                    =   5.5384670803675E-04
(PID.TID 0000.0001) %MON ke_max                       =   1.2365413262462E+00
(PID.TID 0000.0001) %MON ke_mean                      =   4.7898090688779E-04
(PID.TID 0000.0001) %MON ke_vol                       =   1.3349981833641E+18
(PID.TID 0000.0001) %MON vort_r_min                   =  -2.8277275564692E-05
(PID.TID 0000.0001) %MON vort_r_max                   =   4.4348440038911E-05
(PID.TID 0000.0001) %MON vort_a_mean                  =  -1.9727864647440E-05
(PID.TID 0000.0001) %MON vort_a_sd                    =   7.4543142222759E-05
(PID.TID 0000.0001) %MON vort_p_mean                  =  -2.1760526992162E-05
(PID.TID 0000.0001) %MON vort_p_sd                    =   9.7242447426927E-05
(PID.TID 0000.0001) %MON surfExpan_theta_mean         =  -1.0084575990346E-07
(PID.TID 0000.0001) %MON surfExpan_salt_mean          =   3.1178452775094E-08
(PID.TID 0000.0001) // =======================================================
(PID.TID 0000.0001) // End MONITOR dynamic field statistics
(PID.TID 0000.0001) // =======================================================
 cg2d: Sum(rhs),rhsMax =  -1.77263159357989E+00  4.81553656770351E-02
 cg2d: Sum(rhs),rhsMax =  -1.80894151860364E+00  4.80000664213917E-02
(PID.TID 0000.0001)      cg2d_init_res =   1.15704327161818E-01
(PID.TID 0000.0001)      cg2d_iters(min,last) =      -1      94
(PID.TID 0000.0001)      cg2d_last_res =   7.02080753992629E-06
(PID.TID 0000.0001) // =======================================================
(PID.TID 0000.0001) // Begin MONITOR dynamic field statistics
(PID.TID 0000.0001) // =======================================================
(PID.TID 0000.0001) %MON time_tsnumber                =                    80
(PID.TID 0000.0001) %MON time_secondsf                =   2.8800000000000E+05
(PID.TID 0000.0001) %MON dynstat_eta_max              =   1.0576887201999E+00
(PID.TID 0000.0001) %MON dynstat_eta_min              =  -1.9912191307991E+00
(PID.TID 0000.0001) %MON dynstat_eta_mean             =   9.1556156174898E-04
(PID.TID 0000.0001) %MON dynstat_eta_sd               =   6.4810393487445E-01
(PID.TID 0000.0001) %MON dynstat_eta_del2             =   7.5449918618366E-05
(PID.TID 0000.0001) %MON dynstat_uvel_max             =   1.1527701253811E+00
(PID.TID 0000.0001) %MON dynstat_uvel_min             =  -9.9632606747751E-01
(PID.TID 0000.0001) %MON dynstat_uvel_mean            =   1.1708192906273E-03
(PID.TID 0000.0001) %MON dynstat_uvel_sd              =   2.1935572751214E-02
(PID.TID 0000.0001) %MON dynstat_uvel_del2            =   1.3086758646879E-05
(PID.TID 0000.0001) %MON dynstat_vvel_max             =   1.5584994940397E+00
(PID.TID 0000.0001) %MON dynstat_vvel_min             =  -8.2453331284429E-01
(PID.TID 0000.0001) %MON dynstat_vvel_mean            =   9.7257771017229E-04
(PID.TID 0000.0001) %MON dynstat_vvel_sd              =   2.2548820822231E-02
(PID.TID 0000.0001) %MON dynstat_vvel_del2            =   1.3346831460427E-05
(PID.TID 0000.0001) %MON dynstat_wvel_max             =   7.6185333427949E-04
(PID.TID 0000.0001) %MON dynstat_wvel_min             =  -1.0066835065912E-03
(PID.TID 0000.0001) %MON dynstat_wvel_mean            =   1.6642223380752E-08
(PID.TID 0000.0001) %MON dynstat_wvel_sd              =   2.5539305996574E-05
(PID.TID 0000.0001) %MON dynstat_wvel_del2            =   2.5567250433706E-08
(PID.TID 0000.0001) %MON dynstat_theta_max            =   3.2439243904572E+01
(PID.TID 0000.0001) %MON dynstat_theta_min            =  -2.0416278428706E+00
(PID.TID 0000.0001) %MON dynstat_theta_mean           =   3.5903987754591E+00
(PID.TID 0000.0001) %MON dynstat_theta_sd             =   4.4358899127665E+00
(PID.TID 0000.0001) %MON dynstat_theta_del2           =   1.0451660096497E-04
(PID.TID 0000.0001) %MON dynstat_salt_max             =   4.0711538865506E+01
(PID.TID 0000.0001) %MON dynstat_salt_min             =   8.0489360037383E+00
(PID.TID 0000.0001) %MON dynstat_salt_mean            =   3.4725445133813E+01
(PID.TID 0000.0001) %MON dynstat_salt_sd              =   3.7340927824426E-01
(PID.TID 0000.0001) %MON dynstat_salt_del2            =   2.8361947828451E-05
(PID.TID 0000.0001) %MON dynstat_sst_max              =   3.2439234630534E+01
(PID.TID 0000.0001) %MON dynstat_sst_min              =  -1.9160508895625E+00
(PID.TID 0000.0001) %MON dynstat_sst_mean             =   1.8450739216750E+01
(PID.TID 0000.0001) %MON dynstat_sst_sd               =   1.0157636776026E+01
(PID.TID 0000.0001) %MON dynstat_sst_del2             =   8.6338407373627E-04
(PID.TID 0000.0001) %MON dynstat_sss_max              =   3.8421729243908E+01
(PID.TID 0000.0001) %MON dynstat_sss_min              =   8.0489360037383E+00
(PID.TID 0000.0001) %MON dynstat_sss_mean             =   3.4629685827728E+01
(PID.TID 0000.0001) %MON dynstat_sss_sd               =   9.7153486539704E-01
(PID.TID 0000.0001) %MON dynstat_sss_del2             =   7.2158063132545E-04
(PID.TID 0000.0001) %MON forcing_qnet_max             =   1.8606920166016E+03
(PID.TID 0000.0001) %MON forcing_qnet_min             =  -2.4761435901029E+03
(PID.TID 0000.0001) %MON forcing_qnet_mean            =   1.1201196879550E+00
(PID.TID 0000.0001) %MON forcing_qnet_sd              =   1.7916929484202E+02
(PID.TID 0000.0001) %MON forcing_qnet_del2            =   5.2645825023540E-01
(PID.TID 0000.0001) %MON forcing_qsw_max              =   0.0000000000000E+00
(PID.TID 0000.0001) %MON forcing_qsw_min              =  -4.3800426964840E+02
(PID.TID 0000.0001) %MON forcing_qsw_mean             =  -7.4349036386745E+01
(PID.TID 0000.0001) %MON forcing_qsw_sd               =   1.1306830590993E+02
(PID.TID 0000.0001) %MON forcing_qsw_del2             =   1.7785692462863E-01
(PID.TID 0000.0001) %MON forcing_empmr_max            =   5.9662545099854E-03
(PID.TID 0000.0001) %MON forcing_empmr_min            =  -1.0817423462868E-01
(PID.TID 0000.0001) %MON forcing_empmr_mean           =  -5.2529256118113E-06
(PID.TID 0000.0001) %MON forcing_empmr_sd             =   4.3955755778229E-04
(PID.TID 0000.0001) %MON forcing_empmr_del2           =   3.0004923666766E-06
(PID.TID 0000.0001) %MON forcing_fu_max               =   9.0585693717003E-01
(PID.TID 0000.0001) %MON forcing_fu_min               =  -6.9148409366608E-01
(PID.TID 0000.0001) %MON forcing_fu_mean              =   1.0767303617760E-02
(PID.TID 0000.0001) %MON forcing_fu_sd                =   9.9641353660632E-02
(PID.TID 0000.0001) %MON forcing_fu_del2              =   1.3448511294711E-04
(PID.TID 0000.0001) %MON forcing_fv_max               =   1.0171326994896E+00
(PID.TID 0000.0001) %MON forcing_fv_min               =  -7.6661534200199E-01
(PID.TID 0000.0001) %MON forcing_fv_mean              =  -8.6515202748238E-03
(PID.TID 0000.0001) %MON forcing_fv_sd                =   1.0157288400771E-01
(PID.TID 0000.0001) %MON forcing_fv_del2              =   1.1290734888033E-04
(PID.TID 0000.0001) %MON trAdv_CFL_u_max              =   6.8580385257398E-02
(PID.TID 0000.0001) %MON trAdv_CFL_v_max              =   1.0688980349568E-01
(PID.TID 0000.0001) %MON trAdv_CFL_w_max              =   1.5723029118634E-01
(PID.TID 0000.0001) %MON advcfl_uvel_max              =   6.5936522225701E-02
(PID.TID 0000.0001) %MON advcfl_vvel_max              =   1.1065910066930E-01
(PID.TID 0000.0001) %MON advcfl_wvel_max              =   1.6013259573093E-01
(PID.TID 0000.0001) %MON advcfl_W_hf_max              =   1.6795043947776E-01
(PID.TID 0000.0001) %MON pe_b_mean                    =   5.5252044992063E-04
(PID.TID 0000.0001) %MON ke_max                       =   1.2012592296263E+00
(PID.TID 0000.0001) %MON ke_mean                      =   4.7830418525786E-04
(PID.TID 0000.0001) %MON ke_vol                       =   1.3349981981436E+18
(PID.TID 0000.0001) %MON vort_r_min                   =  -2.7721193898396E-05
(PID.TID 0000.0001) %MON vort_r_max                   =   4.3677020586996E-05
(PID.TID 0000.0001) %MON vort_a_mean                  =  -1.9727864647440E-05
(PID.TID 0000.0001) %MON vort_a_sd                    =   7.4543142256407E-05
(PID.TID 0000.0001) %MON vort_p_mean                  =  -2.1760526876305E-05
(PID.TID 0000.0001) %MON vort_p_sd                    =   9.7242428177131E-05
(PID.TID 0000.0001) %MON surfExpan_theta_mean         =  -1.7873485707910E-07
(PID.TID 0000.0001) %MON surfExpan_salt_mean          =   2.8887222857906E-08
(PID.TID 0000.0001) // =======================================================
(PID.TID 0000.0001) // End MONITOR dynamic field statistics
(PID.TID 0000.0001) // =======================================================
 cg2d: Sum(rhs),rhsMax =  -1.84393698108157E+00  4.78535364656641E-02
 cg2d: Sum(rhs),rhsMax =  -1.87998842365641E+00  4.77947532679530E-02
(PID.TID 0000.0001)      cg2d_init_res =   1.14492689306655E-01
(PID.TID 0000.0001)      cg2d_iters(min,last) =      -1      94
(PID.TID 0000.0001)      cg2d_last_res =   6.72448948201024E-06
(PID.TID 0000.0001) // =======================================================
(PID.TID 0000.0001) // Begin MONITOR dynamic field statistics
(PID.TID 0000.0001) // =======================================================
(PID.TID 0000.0001) %MON time_tsnumber                =                    82
(PID.TID 0000.0001) %MON time_secondsf                =   2.9520000000000E+05
(PID.TID 0000.0001) %MON dynstat_eta_max              =   1.0568919984360E+00
(PID.TID 0000.0001) %MON dynstat_eta_min              =  -1.9927233610942E+00
(PID.TID 0000.0001) %MON dynstat_eta_mean             =   9.5152060999809E-04
(PID.TID 0000.0001) %MON dynstat_eta_sd               =   6.4732237785508E-01
(PID.TID 0000.0001) %MON dynstat_eta_del2             =   7.5078847663653E-05
(PID.TID 0000.0001) %MON dynstat_uvel_max             =   1.1554421854770E+00
(PID.TID 0000.0001) %MON dynstat_uvel_min             =  -9.7693070361711E-01
(PID.TID 0000.0001) %MON dynstat_uvel_mean            =   1.1360160677047E-03
(PID.TID 0000.0001) %MON dynstat_uvel_sd              =   2.1912865276118E-02
(PID.TID 0000.0001) %MON dynstat_uvel_del2            =   1.3024448146670E-05
(PID.TID 0000.0001) %MON dynstat_vvel_max             =   1.5374715468487E+00
(PID.TID 0000.0001) %MON dynstat_vvel_min             =  -8.2233421216606E-01
(PID.TID 0000.0001) %MON dynstat_vvel_mean            =   9.7256278402061E-04
(PID.TID 0000.0001) %MON dynstat_vvel_sd              =   2.2540841201800E-02
(PID.TID 0000.0001) %MON dynstat_vvel_del2            =   1.3287287474229E-05
(PID.TID 0000.0001) %MON dynstat_wvel_max             =   7.5557621912222E-04
(PID.TID 0000.0001) %MON dynstat_wvel_min             =  -9.1766704993368E-04
(PID.TID 0000.0001) %MON dynstat_wvel_mean            =   1.3944169878329E-08
(PID.TID 0000.0001) %MON dynstat_wvel_sd              =   2.5420650298670E-05
(PID.TID 0000.0001) %MON dynstat_wvel_del2            =   2.5010499677210E-08
(PID.TID 0000.0001) %MON dynstat_theta_max            =   3.2426201542561E+01
(PID.TID 0000.0001) %MON dynstat_theta_min            =  -2.0416304485389E+00
(PID.TID 0000.0001) %MON dynstat_theta_mean           =   3.5903994400765E+00
(PID.TID 0000.0001) %MON dynstat_theta_sd             =   4.4358924397504E+00
(PID.TID 0000.0001) %MON dynstat_theta_del2           =   1.0445072254908E-04
(PID.TID 0000.0001) %MON dynstat_salt_max             =   4.0711539485999E+01
(PID.TID 0000.0001) %MON dynstat_salt_min             =   7.4853397070241E+00
(PID.TID 0000.0001) %MON dynstat_salt_mean            =   3.4725441582065E+01
(PID.TID 0000.0001) %MON dynstat_salt_sd              =   3.7340317365460E-01
(PID.TID 0000.0001) %MON dynstat_salt_del2            =   2.8267456168697E-05
(PID.TID 0000.0001) %MON dynstat_sst_max              =   3.2426192112147E+01
(PID.TID 0000.0001) %MON dynstat_sst_min              =  -1.9163079792804E+00
(PID.TID 0000.0001) %MON dynstat_sst_mean             =   1.8451558729052E+01
(PID.TID 0000.0001) %MON dynstat_sst_sd               =   1.0158844184222E+01
(PID.TID 0000.0001) %MON dynstat_sst_del2             =   8.6278141146029E-04
(PID.TID 0000.0001) %MON dynstat_sss_max              =   3.8405363092234E+01
(PID.TID 0000.0001) %MON dynstat_sss_min              =   7.4853397070241E+00
(PID.TID 0000.0001) %MON dynstat_sss_mean             =   3.4629730680053E+01
(PID.TID 0000.0001) %MON dynstat_sss_sd               =   9.7201978817878E-01
(PID.TID 0000.0001) %MON dynstat_sss_del2             =   7.1660468246982E-04
(PID.TID 0000.0001) %MON forcing_qnet_max             =   2.1271469726562E+03
(PID.TID 0000.0001) %MON forcing_qnet_min             =  -1.3352474365234E+03
(PID.TID 0000.0001) %MON forcing_qnet_mean            =  -2.0193764984491E+00
(PID.TID 0000.0001) %MON forcing_qnet_sd              =   1.7691852502761E+02
(PID.TID 0000.0001) %MON forcing_qnet_del2            =   5.4520453768173E-01
(PID.TID 0000.0001) %MON forcing_qsw_max              =   0.0000000000000E+00
(PID.TID 0000.0001) %MON forcing_qsw_min              =  -4.3023094743107E+02
(PID.TID 0000.0001) %MON forcing_qsw_mean             =  -7.5820944483564E+01
(PID.TID 0000.0001) %MON forcing_qsw_sd               =   1.1287360792579E+02
(PID.TID 0000.0001) %MON forcing_qsw_del2             =   1.7805303961358E-01
(PID.TID 0000.0001) %MON forcing_empmr_max            =   5.2400715649128E-03
(PID.TID 0000.0001) %MON forcing_empmr_min            =  -1.1741385608912E-01
(PID.TID 0000.0001) %MON forcing_empmr_mean           =  -5.2155311782936E-06
(PID.TID 0000.0001) %MON forcing_empmr_sd             =   4.7721562306509E-04
(PID.TID 0000.0001) %MON forcing_empmr_del2           =   3.2344048368401E-06
(PID.TID 0000.0001) %MON forcing_fu_max               =   8.8796329498291E-01
(PID.TID 0000.0001) %MON forcing_fu_min               =  -6.6203057765961E-01
(PID.TID 0000.0001) %MON forcing_fu_mean              =   1.0695535756646E-02
(PID.TID 0000.0001) %MON forcing_fu_sd                =   9.9205441415342E-02
(PID.TID 0000.0001) %MON forcing_fu_del2              =   1.3406967318577E-04
(PID.TID 0000.0001) %MON forcing_fv_max               =   1.0187059044838E+00
(PID.TID 0000.0001) %MON forcing_fv_min               =  -7.7043724049388E-01
(PID.TID 0000.0001) %MON forcing_fv_mean              =  -8.8189062804222E-03
(PID.TID 0000.0001) %MON forcing_fv_sd                =   1.0153719221177E-01
(PID.TID 0000.0001) %MON forcing_fv_del2              =   1.1267283400510E-04
(PID.TID 0000.0001) %MON trAdv_CFL_u_max              =   6.7308520261959E-02
(PID.TID 0000.0001) %MON trAdv_CFL_v_max              =   1.0540591971820E-01
(PID.TID 0000.0001) %MON trAdv_CFL_w_max              =   1.5620909316544E-01
(PID.TID 0000.0001) %MON advcfl_uvel_max              =   6.4652943604201E-02
(PID.TID 0000.0001) %MON advcfl_vvel_max              =   1.0916604036741E-01
(PID.TID 0000.0001) %MON advcfl_wvel_max              =   1.5915792240896E-01
(PID.TID 0000.0001) %MON advcfl_W_hf_max              =   1.6692931419433E-01
(PID.TID 0000.0001) %MON pe_b_mean                    =   5.5118875576045E-04
(PID.TID 0000.0001) %MON ke_max                       =   1.1664232110749E+00
(PID.TID 0000.0001) %MON ke_mean                      =   4.7761191306853E-04
(PID.TID 0000.0001) %MON ke_vol                       =   1.3349982110643E+18
(PID.TID 0000.0001) %MON vort_r_min                   =  -2.7182672030161E-05
(PID.TID 0000.0001) %MON vort_r_max                   =   4.3005872992472E-05
(PID.TID 0000.0001) %MON vort_a_mean                  =  -1.9727864647440E-05
(PID.TID 0000.0001) %MON vort_a_sd                    =   7.4543142810966E-05
(PID.TID 0000.0001) %MON vort_p_mean                  =  -2.1760526754523E-05
(PID.TID 0000.0001) %MON vort_p_sd                    =   9.7242477163018E-05
(PID.TID 0000.0001) %MON surfExpan_theta_mean         =  -2.5171815322422E-07
(PID.TID 0000.0001) %MON surfExpan_salt_mean          =   2.9188703878623E-08
(PID.TID 0000.0001) // =======================================================
(PID.TID 0000.0001) // End MONITOR dynamic field statistics
(PID.TID 0000.0001) // =======================================================
 cg2d: Sum(rhs),rhsMax =  -1.91314442344501E+00  4.77447710182148E-02
 cg2d: Sum(rhs),rhsMax =  -1.94409072736965E+00  4.76933380485944E-02
(PID.TID 0000.0001)      cg2d_init_res =   1.13570726876724E-01
(PID.TID 0000.0001)      cg2d_iters(min,last) =      -1      93
(PID.TID 0000.0001)      cg2d_last_res =   6.91050909954481E-06
(PID.TID 0000.0001) // =======================================================
(PID.TID 0000.0001) // Begin MONITOR dynamic field statistics
(PID.TID 0000.0001) // =======================================================
(PID.TID 0000.0001) %MON time_tsnumber                =                    84
(PID.TID 0000.0001) %MON time_secondsf                =   3.0240000000000E+05
(PID.TID 0000.0001) %MON dynstat_eta_max              =   1.0562977977622E+00
(PID.TID 0000.0001) %MON dynstat_eta_min              =  -1.9934427630753E+00
(PID.TID 0000.0001) %MON dynstat_eta_mean             =   9.8396477952809E-04
(PID.TID 0000.0001) %MON dynstat_eta_sd               =   6.4655138339572E-01
(PID.TID 0000.0001) %MON dynstat_eta_del2             =   7.4703592637425E-05
(PID.TID 0000.0001) %MON dynstat_uvel_max             =   1.1584709466353E+00
(PID.TID 0000.0001) %MON dynstat_uvel_min             =  -9.5864760169319E-01
(PID.TID 0000.0001) %MON dynstat_uvel_mean            =   1.1071830410989E-03
(PID.TID 0000.0001) %MON dynstat_uvel_sd              =   2.1892938392651E-02
(PID.TID 0000.0001) %MON dynstat_uvel_del2            =   1.2955675285971E-05
(PID.TID 0000.0001) %MON dynstat_vvel_max             =   1.5165771437838E+00
(PID.TID 0000.0001) %MON dynstat_vvel_min             =  -8.2027326137233E-01
(PID.TID 0000.0001) %MON dynstat_vvel_mean            =   9.7491206715108E-04
(PID.TID 0000.0001) %MON dynstat_vvel_sd              =   2.2523787940849E-02
(PID.TID 0000.0001) %MON dynstat_vvel_del2            =   1.3226456781529E-05
(PID.TID 0000.0001) %MON dynstat_wvel_max             =   7.3194803514732E-04
(PID.TID 0000.0001) %MON dynstat_wvel_min             =  -8.8300878167237E-04
(PID.TID 0000.0001) %MON dynstat_wvel_mean            =   1.1729360677269E-08
(PID.TID 0000.0001) %MON dynstat_wvel_sd              =   2.5319279362439E-05
(PID.TID 0000.0001) %MON dynstat_wvel_del2            =   2.4506396836889E-08
(PID.TID 0000.0001) %MON dynstat_theta_max            =   3.2412686600516E+01
(PID.TID 0000.0001) %MON dynstat_theta_min            =  -2.0416323877440E+00
(PID.TID 0000.0001) %MON dynstat_theta_mean           =   3.5904014508886E+00
(PID.TID 0000.0001) %MON dynstat_theta_sd             =   4.4359013584716E+00
(PID.TID 0000.0001) %MON dynstat_theta_del2           =   1.0438374813217E-04
(PID.TID 0000.0001) %MON dynstat_salt_max             =   4.0711540334733E+01
(PID.TID 0000.0001) %MON dynstat_salt_min             =   6.9357997486363E+00
(PID.TID 0000.0001) %MON dynstat_salt_mean            =   3.4725438216277E+01
(PID.TID 0000.0001) %MON dynstat_salt_sd              =   3.7339740860102E-01
(PID.TID 0000.0001) %MON dynstat_salt_del2            =   2.8179233561116E-05
(PID.TID 0000.0001) %MON dynstat_sst_max              =   3.2412677050679E+01
(PID.TID 0000.0001) %MON dynstat_sst_min              =  -1.9165500531219E+00
(PID.TID 0000.0001) %MON dynstat_sst_mean             =   1.8452437320445E+01
(PID.TID 0000.0001) %MON dynstat_sst_sd               =   1.0160134760144E+01
(PID.TID 0000.0001) %MON dynstat_sst_del2             =   8.6258515723700E-04
(PID.TID 0000.0001) %MON dynstat_sss_max              =   3.8389585967554E+01
(PID.TID 0000.0001) %MON dynstat_sss_min              =   6.9357997486363E+00
(PID.TID 0000.0001) %MON dynstat_sss_mean             =   3.4629785859064E+01
(PID.TID 0000.0001) %MON dynstat_sss_sd               =   9.7251635081233E-01
(PID.TID 0000.0001) %MON dynstat_sss_del2             =   7.1224471287445E-04
(PID.TID 0000.0001) %MON forcing_qnet_max             =   4.1709111275363E+03
(PID.TID 0000.0001) %MON forcing_qnet_min             =  -1.6206302490234E+03
(PID.TID 0000.0001) %MON forcing_qnet_mean            =  -3.9577129177052E+00
(PID.TID 0000.0001) %MON forcing_qnet_sd              =   1.7654763025541E+02
(PID.TID 0000.0001) %MON forcing_qnet_del2            =   5.5963436291926E-01
(PID.TID 0000.0001) %MON forcing_qsw_max              =   0.0000000000000E+00
(PID.TID 0000.0001) %MON forcing_qsw_min              =  -4.3017098330933E+02
(PID.TID 0000.0001) %MON forcing_qsw_mean             =  -7.6996720093702E+01
(PID.TID 0000.0001) %MON forcing_qsw_sd               =   1.1318654332703E+02
(PID.TID 0000.0001) %MON forcing_qsw_del2             =   1.7881353390047E-01
(PID.TID 0000.0001) %MON forcing_empmr_max            =   4.9392362125218E-03
(PID.TID 0000.0001) %MON forcing_empmr_min            =  -1.1996836960316E-01
(PID.TID 0000.0001) %MON forcing_empmr_mean           =  -4.4769751623008E-06
(PID.TID 0000.0001) %MON forcing_empmr_sd             =   4.7783203770771E-04
(PID.TID 0000.0001) %MON forcing_empmr_del2           =   3.1438889270957E-06
(PID.TID 0000.0001) %MON forcing_fu_max               =   8.7047019600868E-01
(PID.TID 0000.0001) %MON forcing_fu_min               =  -6.5707808732986E-01
(PID.TID 0000.0001) %MON forcing_fu_mean              =   1.0609868667553E-02
(PID.TID 0000.0001) %MON forcing_fu_sd                =   9.8710251438004E-02
(PID.TID 0000.0001) %MON forcing_fu_del2              =   1.3302537152735E-04
(PID.TID 0000.0001) %MON forcing_fv_max               =   9.9609729647636E-01
(PID.TID 0000.0001) %MON forcing_fv_min               =  -7.7196320899614E-01
(PID.TID 0000.0001) %MON forcing_fv_mean              =  -9.0027388831446E-03
(PID.TID 0000.0001) %MON forcing_fv_sd                =   1.0136752847171E-01
(PID.TID 0000.0001) %MON forcing_fv_del2              =   1.1221310701458E-04
(PID.TID 0000.0001) %MON trAdv_CFL_u_max              =   6.6109553616319E-02
(PID.TID 0000.0001) %MON trAdv_CFL_v_max              =   1.0393086125698E-01
(PID.TID 0000.0001) %MON trAdv_CFL_w_max              =   1.5405632121478E-01
(PID.TID 0000.0001) %MON advcfl_uvel_max              =   6.3442974101532E-02
(PID.TID 0000.0001) %MON advcfl_vvel_max              =   1.0768246218145E-01
(PID.TID 0000.0001) %MON advcfl_wvel_max              =   1.5710447243936E-01
(PID.TID 0000.0001) %MON advcfl_W_hf_max              =   1.6477660795065E-01
(PID.TID 0000.0001) %MON pe_b_mean                    =   5.4987662927144E-04
(PID.TID 0000.0001) %MON ke_max                       =   1.1326753803865E+00
(PID.TID 0000.0001) %MON ke_mean                      =   4.7679147656818E-04
(PID.TID 0000.0001) %MON ke_vol                       =   1.3349982236048E+18
(PID.TID 0000.0001) %MON vort_r_min                   =  -2.6669475225938E-05
(PID.TID 0000.0001) %MON vort_r_max                   =   4.2344384771684E-05
(PID.TID 0000.0001) %MON vort_a_mean                  =  -1.9727864647440E-05
(PID.TID 0000.0001) %MON vort_a_sd                    =   7.4543143637321E-05
(PID.TID 0000.0001) %MON vort_p_mean                  =  -2.1760526608516E-05
(PID.TID 0000.0001) %MON vort_p_sd                    =   9.7242597492300E-05
(PID.TID 0000.0001) %MON surfExpan_theta_mean         =  -3.1151688106654E-07
(PID.TID 0000.0001) %MON surfExpan_salt_mean          =   2.8780970442346E-08
(PID.TID 0000.0001) // =======================================================
(PID.TID 0000.0001) // End MONITOR dynamic field statistics
(PID.TID 0000.0001) // =======================================================
 cg2d: Sum(rhs),rhsMax =  -1.97587444280011E+00  4.76441330537992E-02
 cg2d: Sum(rhs),rhsMax =  -2.00698614249299E+00  4.75965987700341E-02
(PID.TID 0000.0001)      cg2d_init_res =   1.12718066695904E-01
(PID.TID 0000.0001)      cg2d_iters(min,last) =      -1      92
(PID.TID 0000.0001)      cg2d_last_res =   6.96737276109351E-06
(PID.TID 0000.0001) // =======================================================
(PID.TID 0000.0001) // Begin MONITOR dynamic field statistics
(PID.TID 0000.0001) // =======================================================
(PID.TID 0000.0001) %MON time_tsnumber                =                    86
(PID.TID 0000.0001) %MON time_secondsf                =   3.0960000000000E+05
(PID.TID 0000.0001) %MON dynstat_eta_max              =   1.0557381082027E+00
(PID.TID 0000.0001) %MON dynstat_eta_min              =  -1.9935060019297E+00
(PID.TID 0000.0001) %MON dynstat_eta_mean             =   1.0157981052078E-03
(PID.TID 0000.0001) %MON dynstat_eta_sd               =   6.4581683709798E-01
(PID.TID 0000.0001) %MON dynstat_eta_del2             =   7.4327418096580E-05
(PID.TID 0000.0001) %MON dynstat_uvel_max             =   1.1612247710540E+00
(PID.TID 0000.0001) %MON dynstat_uvel_min             =  -9.4132778226151E-01
(PID.TID 0000.0001) %MON dynstat_uvel_mean            =   1.0859450270509E-03
(PID.TID 0000.0001) %MON dynstat_uvel_sd              =   2.1874978420923E-02
(PID.TID 0000.0001) %MON dynstat_uvel_del2            =   1.2884046571161E-05
(PID.TID 0000.0001) %MON dynstat_vvel_max             =   1.4957328211723E+00
(PID.TID 0000.0001) %MON dynstat_vvel_min             =  -8.1838803466809E-01
(PID.TID 0000.0001) %MON dynstat_vvel_mean            =   9.8129415415052E-04
(PID.TID 0000.0001) %MON dynstat_vvel_sd              =   2.2500690094325E-02
(PID.TID 0000.0001) %MON dynstat_vvel_del2            =   1.3163368619058E-05
(PID.TID 0000.0001) %MON dynstat_wvel_max             =   6.9714783796127E-04
(PID.TID 0000.0001) %MON dynstat_wvel_min             =  -9.0477507437089E-04
(PID.TID 0000.0001) %MON dynstat_wvel_mean            =   9.6182565390935E-09
(PID.TID 0000.0001) %MON dynstat_wvel_sd              =   2.5224569393068E-05
(PID.TID 0000.0001) %MON dynstat_wvel_del2            =   2.4083729067417E-08
(PID.TID 0000.0001) %MON dynstat_theta_max            =   3.2398927582997E+01
(PID.TID 0000.0001) %MON dynstat_theta_min            =  -2.0416336903956E+00
(PID.TID 0000.0001) %MON dynstat_theta_mean           =   3.5904045823125E+00
(PID.TID 0000.0001) %MON dynstat_theta_sd             =   4.4359159535494E+00
(PID.TID 0000.0001) %MON dynstat_theta_del2           =   1.0431096519257E-04
(PID.TID 0000.0001) %MON dynstat_salt_max             =   4.0711541385483E+01
(PID.TID 0000.0001) %MON dynstat_salt_min             =   6.5010341960508E+00
(PID.TID 0000.0001) %MON dynstat_salt_mean            =   3.4725434999410E+01
(PID.TID 0000.0001) %MON dynstat_salt_sd              =   3.7339164729494E-01
(PID.TID 0000.0001) %MON dynstat_salt_del2            =   2.8089242889477E-05
(PID.TID 0000.0001) %MON dynstat_sst_max              =   3.2398917598935E+01
(PID.TID 0000.0001) %MON dynstat_sst_min              =  -1.9167762831492E+00
(PID.TID 0000.0001) %MON dynstat_sst_mean             =   1.8453264424424E+01
(PID.TID 0000.0001) %MON dynstat_sst_sd               =   1.0161451656666E+01
(PID.TID 0000.0001) %MON dynstat_sst_del2             =   8.6212753768167E-04
(PID.TID 0000.0001) %MON dynstat_sss_max              =   3.8374397077668E+01
(PID.TID 0000.0001) %MON dynstat_sss_min              =   6.5010341960508E+00
(PID.TID 0000.0001) %MON dynstat_sss_mean             =   3.4629852753221E+01
(PID.TID 0000.0001) %MON dynstat_sss_sd               =   9.7297267031717E-01
(PID.TID 0000.0001) %MON dynstat_sss_del2             =   7.0762383134680E-04
(PID.TID 0000.0001) %MON forcing_qnet_max             =   2.4903154296875E+03
(PID.TID 0000.0001) %MON forcing_qnet_min             =  -1.0537637939453E+03
(PID.TID 0000.0001) %MON forcing_qnet_mean            =  -7.5970260817341E+00
(PID.TID 0000.0001) %MON forcing_qnet_sd              =   1.7600961847700E+02
(PID.TID 0000.0001) %MON forcing_qnet_del2            =   5.1171070806829E-01
(PID.TID 0000.0001) %MON forcing_qsw_max              =   0.0000000000000E+00
(PID.TID 0000.0001) %MON forcing_qsw_min              =  -4.2021735796322E+02
(PID.TID 0000.0001) %MON forcing_qsw_mean             =  -7.8753581187746E+01
(PID.TID 0000.0001) %MON forcing_qsw_sd               =   1.1438075081820E+02
(PID.TID 0000.0001) %MON forcing_qsw_del2             =   1.7948935751186E-01
(PID.TID 0000.0001) %MON forcing_empmr_max            =   5.6690811179578E-03
(PID.TID 0000.0001) %MON forcing_empmr_min            =  -1.1649615317583E-01
(PID.TID 0000.0001) %MON forcing_empmr_mean           =  -4.5009028257618E-06
(PID.TID 0000.0001) %MON forcing_empmr_sd             =   4.6773799803018E-04
(PID.TID 0000.0001) %MON forcing_empmr_del2           =   3.0864151186709E-06
(PID.TID 0000.0001) %MON forcing_fu_max               =   8.5413572192192E-01
(PID.TID 0000.0001) %MON forcing_fu_min               =  -6.5270337462425E-01
(PID.TID 0000.0001) %MON forcing_fu_mean              =   1.0517755967443E-02
(PID.TID 0000.0001) %MON forcing_fu_sd                =   9.8299899931993E-02
(PID.TID 0000.0001) %MON forcing_fu_del2              =   1.3238506581723E-04
(PID.TID 0000.0001) %MON forcing_fv_max               =   9.7755211591721E-01
(PID.TID 0000.0001) %MON forcing_fv_min               =  -7.6731068582759E-01
(PID.TID 0000.0001) %MON forcing_fv_mean              =  -9.1530535674046E-03
(PID.TID 0000.0001) %MON forcing_fv_sd                =   1.0133601934273E-01
(PID.TID 0000.0001) %MON forcing_fv_del2              =   1.1195548150001E-04
(PID.TID 0000.0001) %MON trAdv_CFL_u_max              =   6.4973589537804E-02
(PID.TID 0000.0001) %MON trAdv_CFL_v_max              =   1.0245895831074E-01
(PID.TID 0000.0001) %MON trAdv_CFL_w_max              =   1.5233586345852E-01
(PID.TID 0000.0001) %MON advcfl_uvel_max              =   6.2296754308455E-02
(PID.TID 0000.0001) %MON advcfl_vvel_max              =   1.0620243988881E-01
(PID.TID 0000.0001) %MON advcfl_wvel_max              =   1.5546349595667E-01
(PID.TID 0000.0001) %MON advcfl_W_hf_max              =   1.6305619630079E-01
(PID.TID 0000.0001) %MON pe_b_mean                    =   5.4862799252951E-04
(PID.TID 0000.0001) %MON ke_max                       =   1.0996881855475E+00
(PID.TID 0000.0001) %MON ke_mean                      =   4.7589453278077E-04
(PID.TID 0000.0001) %MON ke_vol                       =   1.3349982349716E+18
(PID.TID 0000.0001) %MON vort_r_min                   =  -2.6176484300606E-05
(PID.TID 0000.0001) %MON vort_r_max                   =   4.1688635504280E-05
(PID.TID 0000.0001) %MON vort_a_mean                  =  -1.9727864647440E-05
(PID.TID 0000.0001) %MON vort_a_sd                    =   7.4543144839896E-05
(PID.TID 0000.0001) %MON vort_p_mean                  =  -2.1760526454473E-05
(PID.TID 0000.0001) %MON vort_p_sd                    =   9.7242715816317E-05
(PID.TID 0000.0001) %MON surfExpan_theta_mean         =  -3.5956442619789E-07
(PID.TID 0000.0001) %MON surfExpan_salt_mean          =   2.8726504924138E-08
(PID.TID 0000.0001) // =======================================================
(PID.TID 0000.0001) // End MONITOR dynamic field statistics
(PID.TID 0000.0001) // =======================================================
 cg2d: Sum(rhs),rhsMax =  -2.03708764002470E+00  4.75518967652875E-02
 cg2d: Sum(rhs),rhsMax =  -2.06731811496866E+00  4.75080701596717E-02
(PID.TID 0000.0001)      cg2d_init_res =   1.11913600674249E-01
(PID.TID 0000.0001)      cg2d_iters(min,last) =      -1      90
(PID.TID 0000.0001)      cg2d_last_res =   6.96407085394605E-06
(PID.TID 0000.0001) // =======================================================
(PID.TID 0000.0001) // Begin MONITOR dynamic field statistics
(PID.TID 0000.0001) // =======================================================
(PID.TID 0000.0001) %MON time_tsnumber                =                    88
(PID.TID 0000.0001) %MON time_secondsf                =   3.1680000000000E+05
(PID.TID 0000.0001) %MON dynstat_eta_max              =   1.0549841737591E+00
(PID.TID 0000.0001) %MON dynstat_eta_min              =  -1.9929805119707E+00
(PID.TID 0000.0001) %MON dynstat_eta_mean             =   1.0463339928388E-03
(PID.TID 0000.0001) %MON dynstat_eta_sd               =   6.4514160308706E-01
(PID.TID 0000.0001) %MON dynstat_eta_del2             =   7.3971135751360E-05
(PID.TID 0000.0001) %MON dynstat_uvel_max             =   1.1629253169826E+00
(PID.TID 0000.0001) %MON dynstat_uvel_min             =  -9.2496499740688E-01
(PID.TID 0000.0001) %MON dynstat_uvel_mean            =   1.0732096301204E-03
(PID.TID 0000.0001) %MON dynstat_uvel_sd              =   2.1854574104313E-02
(PID.TID 0000.0001) %MON dynstat_uvel_del2            =   1.2817640995791E-05
(PID.TID 0000.0001) %MON dynstat_vvel_max             =   1.4750417734008E+00
(PID.TID 0000.0001) %MON dynstat_vvel_min             =  -8.1683250911774E-01
(PID.TID 0000.0001) %MON dynstat_vvel_mean            =   9.9273811293250E-04
(PID.TID 0000.0001) %MON dynstat_vvel_sd              =   2.2484568742477E-02
(PID.TID 0000.0001) %MON dynstat_vvel_del2            =   1.3100220744210E-05
(PID.TID 0000.0001) %MON dynstat_wvel_max             =   6.5966094472127E-04
(PID.TID 0000.0001) %MON dynstat_wvel_min             =  -9.2746104385764E-04
(PID.TID 0000.0001) %MON dynstat_wvel_mean            =   7.8554454323453E-09
(PID.TID 0000.0001) %MON dynstat_wvel_sd              =   2.5121342919499E-05
(PID.TID 0000.0001) %MON dynstat_wvel_del2            =   2.3750424454771E-08
(PID.TID 0000.0001) %MON dynstat_theta_max            =   3.2384901184255E+01
(PID.TID 0000.0001) %MON dynstat_theta_min            =  -2.0416345385406E+00
(PID.TID 0000.0001) %MON dynstat_theta_mean           =   3.5904092239874E+00
(PID.TID 0000.0001) %MON dynstat_theta_sd             =   4.4359379713614E+00
(PID.TID 0000.0001) %MON dynstat_theta_del2           =   1.0423154476227E-04
(PID.TID 0000.0001) %MON dynstat_salt_max             =   4.0711542608929E+01
(PID.TID 0000.0001) %MON dynstat_salt_min             =   6.0640073588737E+00
(PID.TID 0000.0001) %MON dynstat_salt_mean            =   3.4725431947609E+01
(PID.TID 0000.0001) %MON dynstat_salt_sd              =   3.7338648961926E-01
(PID.TID 0000.0001) %MON dynstat_salt_del2            =   2.8018451917986E-05
(PID.TID 0000.0001) %MON dynstat_sst_max              =   3.2384890805730E+01
(PID.TID 0000.0001) %MON dynstat_sst_min              =  -1.9169870254535E+00
(PID.TID 0000.0001) %MON dynstat_sst_mean             =   1.8454188358381E+01
(PID.TID 0000.0001) %MON dynstat_sst_sd               =   1.0162810808135E+01
(PID.TID 0000.0001) %MON dynstat_sst_del2             =   8.6193190302570E-04
(PID.TID 0000.0001) %MON dynstat_sss_max              =   3.8359791472458E+01
(PID.TID 0000.0001) %MON dynstat_sss_min              =   6.0640073588737E+00
(PID.TID 0000.0001) %MON dynstat_sss_mean             =   3.4629928246135E+01
(PID.TID 0000.0001) %MON dynstat_sss_sd               =   9.7344888235105E-01
(PID.TID 0000.0001) %MON dynstat_sss_del2             =   7.0387348967357E-04
(PID.TID 0000.0001) %MON forcing_qnet_max             =   2.5812338867188E+03
(PID.TID 0000.0001) %MON forcing_qnet_min             =  -9.6679704748279E+02
(PID.TID 0000.0001) %MON forcing_qnet_mean            =  -9.6313224161119E+00
(PID.TID 0000.0001) %MON forcing_qnet_sd              =   1.7625574407940E+02
(PID.TID 0000.0001) %MON forcing_qnet_del2            =   5.1341931597751E-01
(PID.TID 0000.0001) %MON forcing_qsw_max              =   0.0000000000000E+00
(PID.TID 0000.0001) %MON forcing_qsw_min              =  -4.3033116892410E+02
(PID.TID 0000.0001) %MON forcing_qsw_mean             =  -8.0111732979936E+01
(PID.TID 0000.0001) %MON forcing_qsw_sd               =   1.1546170111872E+02
(PID.TID 0000.0001) %MON forcing_qsw_del2             =   1.8122447050678E-01
(PID.TID 0000.0001) %MON forcing_empmr_max            =   5.1646595820785E-03
(PID.TID 0000.0001) %MON forcing_empmr_min            =  -1.1575438082218E-01
(PID.TID 0000.0001) %MON forcing_empmr_mean           =  -4.3734167995858E-06
(PID.TID 0000.0001) %MON forcing_empmr_sd             =   4.6629156949398E-04
(PID.TID 0000.0001) %MON forcing_empmr_del2           =   3.0670395036183E-06
(PID.TID 0000.0001) %MON forcing_fu_max               =   8.3533981442451E-01
(PID.TID 0000.0001) %MON forcing_fu_min               =  -6.4440110325813E-01
(PID.TID 0000.0001) %MON forcing_fu_mean              =   1.0402546566010E-02
(PID.TID 0000.0001) %MON forcing_fu_sd                =   9.7853758153708E-02
(PID.TID 0000.0001) %MON forcing_fu_del2              =   1.3158713778380E-04
(PID.TID 0000.0001) %MON forcing_fv_max               =   9.7922039031982E-01
(PID.TID 0000.0001) %MON forcing_fv_min               =  -7.6171058570035E-01
(PID.TID 0000.0001) %MON forcing_fv_mean              =  -9.2757846819207E-03
(PID.TID 0000.0001) %MON forcing_fv_sd                =   1.0125210320516E-01
(PID.TID 0000.0001) %MON forcing_fv_del2              =   1.1170221296088E-04
(PID.TID 0000.0001) %MON trAdv_CFL_u_max              =   6.3900475627285E-02
(PID.TID 0000.0001) %MON trAdv_CFL_v_max              =   1.0099741919796E-01
(PID.TID 0000.0001) %MON trAdv_CFL_w_max              =   1.5220808634140E-01
(PID.TID 0000.0001) %MON advcfl_uvel_max              =   6.1213870740053E-02
(PID.TID 0000.0001) %MON advcfl_vvel_max              =   1.0473330066415E-01
(PID.TID 0000.0001) %MON advcfl_wvel_max              =   1.5534125828210E-01
(PID.TID 0000.0001) %MON advcfl_W_hf_max              =   1.6292844950745E-01
(PID.TID 0000.0001) %MON pe_b_mean                    =   5.4748143703000E-04
(PID.TID 0000.0001) %MON ke_max                       =   1.0676257300113E+00
(PID.TID 0000.0001) %MON ke_mean                      =   4.7511225192627E-04
(PID.TID 0000.0001) %MON ke_vol                       =   1.3349982460635E+18
(PID.TID 0000.0001) %MON vort_r_min                   =  -2.5711409306861E-05
(PID.TID 0000.0001) %MON vort_r_max                   =   4.1041665343225E-05
(PID.TID 0000.0001) %MON vort_a_mean                  =  -1.9727864647440E-05
(PID.TID 0000.0001) %MON vort_a_sd                    =   7.4543146460592E-05
(PID.TID 0000.0001) %MON vort_p_mean                  =  -2.1760526283725E-05
(PID.TID 0000.0001) %MON vort_p_sd                    =   9.7242756568263E-05
(PID.TID 0000.0001) %MON surfExpan_theta_mean         =  -3.7902614081807E-07
(PID.TID 0000.0001) %MON surfExpan_salt_mean          =   3.1056975440321E-08
(PID.TID 0000.0001) // =======================================================
(PID.TID 0000.0001) // End MONITOR dynamic field statistics
(PID.TID 0000.0001) // =======================================================
 cg2d: Sum(rhs),rhsMax =  -2.09258784845655E+00  4.74649100475128E-02
 cg2d: Sum(rhs),rhsMax =  -2.11670085353039E+00  4.74173821339433E-02
(PID.TID 0000.0001)      cg2d_init_res =   1.11263291925371E-01
(PID.TID 0000.0001)      cg2d_iters(min,last) =      -1      89
(PID.TID 0000.0001)      cg2d_last_res =   6.64452707746758E-06
(PID.TID 0000.0001) // =======================================================
(PID.TID 0000.0001) // Begin MONITOR dynamic field statistics
(PID.TID 0000.0001) // =======================================================
(PID.TID 0000.0001) %MON time_tsnumber                =                    90
(PID.TID 0000.0001) %MON time_secondsf                =   3.2400000000000E+05
(PID.TID 0000.0001) %MON dynstat_eta_max              =   1.0539420040314E+00
(PID.TID 0000.0001) %MON dynstat_eta_min              =  -1.9920296302565E+00
(PID.TID 0000.0001) %MON dynstat_eta_mean             =   1.0713281326582E-03
(PID.TID 0000.0001) %MON dynstat_eta_sd               =   6.4454382328597E-01
(PID.TID 0000.0001) %MON dynstat_eta_del2             =   7.3618221898134E-05
(PID.TID 0000.0001) %MON dynstat_uvel_max             =   1.1636417244226E+00
(PID.TID 0000.0001) %MON dynstat_uvel_min             =  -9.0960349763410E-01
(PID.TID 0000.0001) %MON dynstat_uvel_mean            =   1.0693384368171E-03
(PID.TID 0000.0001) %MON dynstat_uvel_sd              =   2.1847039681030E-02
(PID.TID 0000.0001) %MON dynstat_uvel_del2            =   1.2763638870237E-05
(PID.TID 0000.0001) %MON dynstat_vvel_max             =   1.4546055718410E+00
(PID.TID 0000.0001) %MON dynstat_vvel_min             =  -8.1556740221692E-01
(PID.TID 0000.0001) %MON dynstat_vvel_mean            =   1.0089106996780E-03
(PID.TID 0000.0001) %MON dynstat_vvel_sd              =   2.2469969622915E-02
(PID.TID 0000.0001) %MON dynstat_vvel_del2            =   1.3039820898037E-05
(PID.TID 0000.0001) %MON dynstat_wvel_max             =   6.2176274946063E-04
(PID.TID 0000.0001) %MON dynstat_wvel_min             =  -9.2733594721992E-04
(PID.TID 0000.0001) %MON dynstat_wvel_mean            =   7.0304531799220E-09
(PID.TID 0000.0001) %MON dynstat_wvel_sd              =   2.4999269403217E-05
(PID.TID 0000.0001) %MON dynstat_wvel_del2            =   2.3473501150026E-08
(PID.TID 0000.0001) %MON dynstat_theta_max            =   3.2370604965990E+01
(PID.TID 0000.0001) %MON dynstat_theta_min            =  -2.0416351219634E+00
(PID.TID 0000.0001) %MON dynstat_theta_mean           =   3.5904150897398E+00
(PID.TID 0000.0001) %MON dynstat_theta_sd             =   4.4359657402289E+00
(PID.TID 0000.0001) %MON dynstat_theta_del2           =   1.0414482522553E-04
(PID.TID 0000.0001) %MON dynstat_salt_max             =   4.0711543967278E+01
(PID.TID 0000.0001) %MON dynstat_salt_min             =   5.6283104859902E+00
(PID.TID 0000.0001) %MON dynstat_salt_mean            =   3.4725429033270E+01
(PID.TID 0000.0001) %MON dynstat_salt_sd              =   3.7338124677679E-01
(PID.TID 0000.0001) %MON dynstat_salt_del2            =   2.7949042450480E-05
(PID.TID 0000.0001) %MON dynstat_sst_max              =   3.2370594166496E+01
(PID.TID 0000.0001) %MON dynstat_sst_min              =  -1.9171836732058E+00
(PID.TID 0000.0001) %MON dynstat_sst_mean             =   1.8455112656026E+01
(PID.TID 0000.0001) %MON dynstat_sst_sd               =   1.0164122864037E+01
(PID.TID 0000.0001) %MON dynstat_sst_del2             =   8.6181490934907E-04
(PID.TID 0000.0001) %MON dynstat_sss_max              =   3.8345778654934E+01
(PID.TID 0000.0001) %MON dynstat_sss_min              =   5.6283104859902E+00
(PID.TID 0000.0001) %MON dynstat_sss_mean             =   3.4629999733249E+01
(PID.TID 0000.0001) %MON dynstat_sss_sd               =   9.7394773305720E-01
(PID.TID 0000.0001) %MON dynstat_sss_del2             =   7.0089302705544E-04
(PID.TID 0000.0001) %MON forcing_qnet_max             =   2.8706081542969E+03
(PID.TID 0000.0001) %MON forcing_qnet_min             =  -9.3529352511564E+02
(PID.TID 0000.0001) %MON forcing_qnet_mean            =  -1.3469621212724E+01
(PID.TID 0000.0001) %MON forcing_qnet_sd              =   1.8059916332565E+02
(PID.TID 0000.0001) %MON forcing_qnet_del2            =   5.5488530582375E-01
(PID.TID 0000.0001) %MON forcing_qsw_max              =   0.0000000000000E+00
(PID.TID 0000.0001) %MON forcing_qsw_min              =  -4.3624911085753E+02
(PID.TID 0000.0001) %MON forcing_qsw_mean             =  -8.2128411848608E+01
(PID.TID 0000.0001) %MON forcing_qsw_sd               =   1.1761241315449E+02
(PID.TID 0000.0001) %MON forcing_qsw_del2             =   1.8390498849672E-01
(PID.TID 0000.0001) %MON forcing_empmr_max            =   6.0941572301090E-03
(PID.TID 0000.0001) %MON forcing_empmr_min            =  -1.1061428487301E-01
(PID.TID 0000.0001) %MON forcing_empmr_mean           =  -3.4884076969694E-06
(PID.TID 0000.0001) %MON forcing_empmr_sd             =   4.5094870677846E-04
(PID.TID 0000.0001) %MON forcing_empmr_del2           =   3.1200372404798E-06
(PID.TID 0000.0001) %MON forcing_fu_max               =   8.1731808185577E-01
(PID.TID 0000.0001) %MON forcing_fu_min               =  -6.3991481065750E-01
(PID.TID 0000.0001) %MON forcing_fu_mean              =   1.0308247579282E-02
(PID.TID 0000.0001) %MON forcing_fu_sd                =   9.7641658783947E-02
(PID.TID 0000.0001) %MON forcing_fu_del2              =   1.3084297720248E-04
(PID.TID 0000.0001) %MON forcing_fv_max               =   1.0096043944359E+00
(PID.TID 0000.0001) %MON forcing_fv_min               =  -7.6696951779259E-01
(PID.TID 0000.0001) %MON forcing_fv_mean              =  -9.3706510176626E-03
(PID.TID 0000.0001) %MON forcing_fv_sd                =   1.0132923809721E-01
(PID.TID 0000.0001) %MON forcing_fv_del2              =   1.1173169250283E-04
(PID.TID 0000.0001) %MON trAdv_CFL_u_max              =   6.2892944030240E-02
(PID.TID 0000.0001) %MON trAdv_CFL_v_max              =   9.9553338736213E-02
(PID.TID 0000.0001) %MON trAdv_CFL_w_max              =   1.5309260092643E-01
(PID.TID 0000.0001) %MON advcfl_uvel_max              =   6.0197251879771E-02
(PID.TID 0000.0001) %MON advcfl_vvel_max              =   1.0328225644222E-01
(PID.TID 0000.0001) %MON advcfl_wvel_max              =   1.5618410090902E-01
(PID.TID 0000.0001) %MON advcfl_W_hf_max              =   1.6381299950899E-01
(PID.TID 0000.0001) %MON pe_b_mean                    =   5.4646739692339E-04
(PID.TID 0000.0001) %MON ke_max                       =   1.0365782648392E+00
(PID.TID 0000.0001) %MON ke_mean                      =   4.7464862266914E-04
(PID.TID 0000.0001) %MON ke_vol                       =   1.3349982561203E+18
(PID.TID 0000.0001) %MON vort_r_min                   =  -2.5269707573258E-05
(PID.TID 0000.0001) %MON vort_r_max                   =   4.0406350850646E-05
(PID.TID 0000.0001) %MON vort_a_mean                  =  -1.9727864647440E-05
(PID.TID 0000.0001) %MON vort_a_sd                    =   7.4543148252492E-05
(PID.TID 0000.0001) %MON vort_p_mean                  =  -2.1760526111785E-05
(PID.TID 0000.0001) %MON vort_p_sd                    =   9.7242723972479E-05
(PID.TID 0000.0001) %MON surfExpan_theta_mean         =  -3.7346803274863E-07
(PID.TID 0000.0001) %MON surfExpan_salt_mean          =   3.1478465684015E-08
(PID.TID 0000.0001) // =======================================================
(PID.TID 0000.0001) // End MONITOR dynamic field statistics
(PID.TID 0000.0001) // =======================================================
 cg2d: Sum(rhs),rhsMax =  -2.13762209111930E+00  4.73683761185741E-02
 cg2d: Sum(rhs),rhsMax =  -2.15659633481765E+00  4.73086884720609E-02
(PID.TID 0000.0001)      cg2d_init_res =   1.10452891252424E-01
(PID.TID 0000.0001)      cg2d_iters(min,last) =      -1      92
(PID.TID 0000.0001)      cg2d_last_res =   6.61297608765964E-06
(PID.TID 0000.0001) // =======================================================
(PID.TID 0000.0001) // Begin MONITOR dynamic field statistics
(PID.TID 0000.0001) // =======================================================
(PID.TID 0000.0001) %MON time_tsnumber                =                    92
(PID.TID 0000.0001) %MON time_secondsf                =   3.3120000000000E+05
(PID.TID 0000.0001) %MON dynstat_eta_max              =   1.0525228756120E+00
(PID.TID 0000.0001) %MON dynstat_eta_min              =  -1.9910771938352E+00
(PID.TID 0000.0001) %MON dynstat_eta_mean             =   1.0915204765115E-03
(PID.TID 0000.0001) %MON dynstat_eta_sd               =   6.4401743287778E-01
(PID.TID 0000.0001) %MON dynstat_eta_del2             =   7.3287007988882E-05
(PID.TID 0000.0001) %MON dynstat_uvel_max             =   1.1643979006222E+00
(PID.TID 0000.0001) %MON dynstat_uvel_min             =  -8.9510679902795E-01
(PID.TID 0000.0001) %MON dynstat_uvel_mean            =   1.0743657446554E-03
(PID.TID 0000.0001) %MON dynstat_uvel_sd              =   2.1838938477508E-02
(PID.TID 0000.0001) %MON dynstat_uvel_del2            =   1.2722910792256E-05
(PID.TID 0000.0001) %MON dynstat_vvel_max             =   1.4345243106388E+00
(PID.TID 0000.0001) %MON dynstat_vvel_min             =  -8.1462886240695E-01
(PID.TID 0000.0001) %MON dynstat_vvel_mean            =   1.0286532475819E-03
(PID.TID 0000.0001) %MON dynstat_vvel_sd              =   2.2470890746323E-02
(PID.TID 0000.0001) %MON dynstat_vvel_del2            =   1.2982989023010E-05
(PID.TID 0000.0001) %MON dynstat_wvel_max             =   6.2046354732177E-04
(PID.TID 0000.0001) %MON dynstat_wvel_min             =  -9.0755819558433E-04
(PID.TID 0000.0001) %MON dynstat_wvel_mean            =   7.0419307835409E-09
(PID.TID 0000.0001) %MON dynstat_wvel_sd              =   2.4852658644861E-05
(PID.TID 0000.0001) %MON dynstat_wvel_del2            =   2.3215122785186E-08
(PID.TID 0000.0001) %MON dynstat_theta_max            =   3.2356067687017E+01
(PID.TID 0000.0001) %MON dynstat_theta_min            =  -2.0416355145336E+00
(PID.TID 0000.0001) %MON dynstat_theta_mean           =   3.5904224976227E+00
(PID.TID 0000.0001) %MON dynstat_theta_sd             =   4.4360010722813E+00
(PID.TID 0000.0001) %MON dynstat_theta_del2           =   1.0405116383838E-04
(PID.TID 0000.0001) %MON dynstat_salt_max             =   4.0711545406964E+01
(PID.TID 0000.0001) %MON dynstat_salt_min             =   5.2346189278146E+00
(PID.TID 0000.0001) %MON dynstat_salt_mean            =   3.4725426301463E+01
(PID.TID 0000.0001) %MON dynstat_salt_sd              =   3.7337611259369E-01
(PID.TID 0000.0001) %MON dynstat_salt_del2            =   2.7885811021962E-05
(PID.TID 0000.0001) %MON dynstat_sst_max              =   3.2356056587713E+01
(PID.TID 0000.0001) %MON dynstat_sst_min              =  -1.9173634772358E+00
(PID.TID 0000.0001) %MON dynstat_sst_mean             =   1.8456170706414E+01
(PID.TID 0000.0001) %MON dynstat_sst_sd               =   1.0165506909307E+01
(PID.TID 0000.0001) %MON dynstat_sst_del2             =   8.6145267437295E-04
(PID.TID 0000.0001) %MON dynstat_sss_max              =   3.8332340885729E+01
(PID.TID 0000.0001) %MON dynstat_sss_min              =   5.2346189278146E+00
(PID.TID 0000.0001) %MON dynstat_sss_mean             =   3.4630081765835E+01
(PID.TID 0000.0001) %MON dynstat_sss_sd               =   9.7446371563168E-01
(PID.TID 0000.0001) %MON dynstat_sss_del2             =   6.9829665546951E-04
(PID.TID 0000.0001) %MON forcing_qnet_max             =   2.1298457031250E+03
(PID.TID 0000.0001) %MON forcing_qnet_min             =  -1.9914985351562E+03
(PID.TID 0000.0001) %MON forcing_qnet_mean            =  -1.5732704902843E+01
(PID.TID 0000.0001) %MON forcing_qnet_sd              =   1.8227590448960E+02
(PID.TID 0000.0001) %MON forcing_qnet_del2            =   5.5100923642739E-01
(PID.TID 0000.0001) %MON forcing_qsw_max              =   0.0000000000000E+00
(PID.TID 0000.0001) %MON forcing_qsw_min              =  -4.3655348362566E+02
(PID.TID 0000.0001) %MON forcing_qsw_mean             =  -8.3656412179628E+01
(PID.TID 0000.0001) %MON forcing_qsw_sd               =   1.1893873375072E+02
(PID.TID 0000.0001) %MON forcing_qsw_del2             =   1.8634642444118E-01
(PID.TID 0000.0001) %MON forcing_empmr_max            =   5.9319389984012E-03
(PID.TID 0000.0001) %MON forcing_empmr_min            =  -1.0694424062967E-01
(PID.TID 0000.0001) %MON forcing_empmr_mean           =  -2.7449875102535E-06
(PID.TID 0000.0001) %MON forcing_empmr_sd             =   4.3391433221050E-04
(PID.TID 0000.0001) %MON forcing_empmr_del2           =   2.9221416558067E-06
(PID.TID 0000.0001) %MON forcing_fu_max               =   8.1520849466324E-01
(PID.TID 0000.0001) %MON forcing_fu_min               =  -6.4553257822990E-01
(PID.TID 0000.0001) %MON forcing_fu_mean              =   1.0222335656910E-02
(PID.TID 0000.0001) %MON forcing_fu_sd                =   9.7449968487527E-02
(PID.TID 0000.0001) %MON forcing_fu_del2              =   1.3029489287768E-04
(PID.TID 0000.0001) %MON forcing_fv_max               =   1.0302100777626E+00
(PID.TID 0000.0001) %MON forcing_fv_min               =  -7.5305581874727E-01
(PID.TID 0000.0001) %MON forcing_fv_mean              =  -9.4709303461589E-03
(PID.TID 0000.0001) %MON forcing_fv_sd                =   1.0113188499753E-01
(PID.TID 0000.0001) %MON forcing_fv_del2              =   1.1138786737846E-04
(PID.TID 0000.0001) %MON trAdv_CFL_u_max              =   6.1942180401942E-02
(PID.TID 0000.0001) %MON trAdv_CFL_v_max              =   9.8133832070534E-02
(PID.TID 0000.0001) %MON trAdv_CFL_w_max              =   1.5327005439767E-01
(PID.TID 0000.0001) %MON advcfl_uvel_max              =   5.9237865268254E-02
(PID.TID 0000.0001) %MON advcfl_vvel_max              =   1.0185641426939E-01
(PID.TID 0000.0001) %MON advcfl_wvel_max              =   1.5635285302983E-01
(PID.TID 0000.0001) %MON advcfl_W_hf_max              =   1.6399048505407E-01
(PID.TID 0000.0001) %MON pe_b_mean                    =   5.4557523260413E-04
(PID.TID 0000.0001) %MON ke_max                       =   1.0066809355312E+00
(PID.TID 0000.0001) %MON ke_mean                      =   4.7452256980854E-04
(PID.TID 0000.0001) %MON ke_vol                       =   1.3349982642806E+18
(PID.TID 0000.0001) %MON vort_r_min                   =  -2.4848104085445E-05
(PID.TID 0000.0001) %MON vort_r_max                   =   3.9785880775457E-05
(PID.TID 0000.0001) %MON vort_a_mean                  =  -1.9727864647440E-05
(PID.TID 0000.0001) %MON vort_a_sd                    =   7.4543149789656E-05
(PID.TID 0000.0001) %MON vort_p_mean                  =  -2.1760525962332E-05
(PID.TID 0000.0001) %MON vort_p_sd                    =   9.7242689839453E-05
(PID.TID 0000.0001) %MON surfExpan_theta_mean         =  -3.4227142197831E-07
(PID.TID 0000.0001) %MON surfExpan_salt_mean          =   3.0730354273470E-08
(PID.TID 0000.0001) // =======================================================
(PID.TID 0000.0001) // End MONITOR dynamic field statistics
(PID.TID 0000.0001) // =======================================================
 cg2d: Sum(rhs),rhsMax =  -2.17357400355210E+00  4.72419990104218E-02
 cg2d: Sum(rhs),rhsMax =  -2.18801050369818E+00  4.71657625938448E-02
(PID.TID 0000.0001)      cg2d_init_res =   1.09503117322440E-01
(PID.TID 0000.0001)      cg2d_iters(min,last) =      -1      93
(PID.TID 0000.0001)      cg2d_last_res =   7.01271803376711E-06
(PID.TID 0000.0001) // =======================================================
(PID.TID 0000.0001) // Begin MONITOR dynamic field statistics
(PID.TID 0000.0001) // =======================================================
(PID.TID 0000.0001) %MON time_tsnumber                =                    94
(PID.TID 0000.0001) %MON time_secondsf                =   3.3840000000000E+05
(PID.TID 0000.0001) %MON dynstat_eta_max              =   1.0507567837321E+00
(PID.TID 0000.0001) %MON dynstat_eta_min              =  -1.9900957912891E+00
(PID.TID 0000.0001) %MON dynstat_eta_mean             =   1.1074201643817E-03
(PID.TID 0000.0001) %MON dynstat_eta_sd               =   6.4355036056558E-01
(PID.TID 0000.0001) %MON dynstat_eta_del2             =   7.2979401013306E-05
(PID.TID 0000.0001) %MON dynstat_uvel_max             =   1.1658557636828E+00
(PID.TID 0000.0001) %MON dynstat_uvel_min             =  -8.8128778057485E-01
(PID.TID 0000.0001) %MON dynstat_uvel_mean            =   1.0873152321708E-03
(PID.TID 0000.0001) %MON dynstat_uvel_sd              =   2.1829512408656E-02
(PID.TID 0000.0001) %MON dynstat_uvel_del2            =   1.2688363671383E-05
(PID.TID 0000.0001) %MON dynstat_vvel_max             =   1.4149670929921E+00
(PID.TID 0000.0001) %MON dynstat_vvel_min             =  -8.1400537968302E-01
(PID.TID 0000.0001) %MON dynstat_vvel_mean            =   1.0501077041348E-03
(PID.TID 0000.0001) %MON dynstat_vvel_sd              =   2.2482961145679E-02
(PID.TID 0000.0001) %MON dynstat_vvel_del2            =   1.2931408858956E-05
(PID.TID 0000.0001) %MON dynstat_wvel_max             =   6.2435429093500E-04
(PID.TID 0000.0001) %MON dynstat_wvel_min             =  -8.9344786205580E-04
(PID.TID 0000.0001) %MON dynstat_wvel_mean            =   7.6947395628482E-09
(PID.TID 0000.0001) %MON dynstat_wvel_sd              =   2.4698652766992E-05
(PID.TID 0000.0001) %MON dynstat_wvel_del2            =   2.2979014600044E-08
(PID.TID 0000.0001) %MON dynstat_theta_max            =   3.2341284329214E+01
(PID.TID 0000.0001) %MON dynstat_theta_min            =  -2.0416356827327E+00
(PID.TID 0000.0001) %MON dynstat_theta_mean           =   3.5904314811257E+00
(PID.TID 0000.0001) %MON dynstat_theta_sd             =   4.4360442439312E+00
(PID.TID 0000.0001) %MON dynstat_theta_del2           =   1.0395522025362E-04
(PID.TID 0000.0001) %MON dynstat_salt_max             =   4.0711546852219E+01
(PID.TID 0000.0001) %MON dynstat_salt_min             =   4.9713703428051E+00
(PID.TID 0000.0001) %MON dynstat_salt_mean            =   3.4725423730424E+01
(PID.TID 0000.0001) %MON dynstat_salt_sd              =   3.7337099307545E-01
(PID.TID 0000.0001) %MON dynstat_salt_del2            =   2.7825329451144E-05
(PID.TID 0000.0001) %MON dynstat_sst_max              =   3.2341272816558E+01
(PID.TID 0000.0001) %MON dynstat_sst_min              =  -1.9175291137700E+00
(PID.TID 0000.0001) %MON dynstat_sst_mean             =   1.8457398522547E+01
(PID.TID 0000.0001) %MON dynstat_sst_sd               =   1.0166973179892E+01
(PID.TID 0000.0001) %MON dynstat_sst_del2             =   8.6098451857415E-04
(PID.TID 0000.0001) %MON dynstat_sss_max              =   3.8319462083557E+01
(PID.TID 0000.0001) %MON dynstat_sss_min              =   4.9713703428051E+00
(PID.TID 0000.0001) %MON dynstat_sss_mean             =   3.4630184241429E+01
(PID.TID 0000.0001) %MON dynstat_sss_sd               =   9.7492557375007E-01
(PID.TID 0000.0001) %MON dynstat_sss_del2             =   6.9513517191872E-04
(PID.TID 0000.0001) %MON forcing_qnet_max             =   1.5117458496094E+03
(PID.TID 0000.0001) %MON forcing_qnet_min             =  -8.9550240931562E+02
(PID.TID 0000.0001) %MON forcing_qnet_mean            =  -2.0650673497409E+01
(PID.TID 0000.0001) %MON forcing_qnet_sd              =   1.8459576838264E+02
(PID.TID 0000.0001) %MON forcing_qnet_del2            =   5.0511842285317E-01
(PID.TID 0000.0001) %MON forcing_qsw_max              =   0.0000000000000E+00
(PID.TID 0000.0001) %MON forcing_qsw_min              =  -4.2819024660444E+02
(PID.TID 0000.0001) %MON forcing_qsw_mean             =  -8.6123403606892E+01
(PID.TID 0000.0001) %MON forcing_qsw_sd               =   1.2067843581187E+02
(PID.TID 0000.0001) %MON forcing_qsw_del2             =   1.8944219375602E-01
(PID.TID 0000.0001) %MON forcing_empmr_max            =   5.0075957551599E-03
(PID.TID 0000.0001) %MON forcing_empmr_min            =  -1.1055793613195E-01
(PID.TID 0000.0001) %MON forcing_empmr_mean           =  -2.0885160547871E-06
(PID.TID 0000.0001) %MON forcing_empmr_sd             =   4.4597968838688E-04
(PID.TID 0000.0001) %MON forcing_empmr_del2           =   2.9632126288768E-06
(PID.TID 0000.0001) %MON forcing_fu_max               =   8.2124695181847E-01
(PID.TID 0000.0001) %MON forcing_fu_min               =  -6.4281424880028E-01
(PID.TID 0000.0001) %MON forcing_fu_mean              =   1.0104626038225E-02
(PID.TID 0000.0001) %MON forcing_fu_sd                =   9.7247161722211E-02
(PID.TID 0000.0001) %MON forcing_fu_del2              =   1.2963262724011E-04
(PID.TID 0000.0001) %MON forcing_fv_max               =   1.0369611382484E+00
(PID.TID 0000.0001) %MON forcing_fv_min               =  -7.5716353387705E-01
(PID.TID 0000.0001) %MON forcing_fv_mean              =  -9.5236533400981E-03
(PID.TID 0000.0001) %MON forcing_fv_sd                =   1.0104258643928E-01
(PID.TID 0000.0001) %MON forcing_fv_del2              =   1.1129650010140E-04
(PID.TID 0000.0001) %MON trAdv_CFL_u_max              =   6.1035960410851E-02
(PID.TID 0000.0001) %MON trAdv_CFL_v_max              =   9.6750941490819E-02
(PID.TID 0000.0001) %MON trAdv_CFL_w_max              =   1.5186499506936E-01
(PID.TID 0000.0001) %MON advcfl_uvel_max              =   5.8323327300100E-02
(PID.TID 0000.0001) %MON advcfl_vvel_max              =   1.0046778108430E-01
(PID.TID 0000.0001) %MON advcfl_wvel_max              =   1.5501320768175E-01
(PID.TID 0000.0001) %MON advcfl_W_hf_max              =   1.6258542755691E-01
(PID.TID 0000.0001) %MON pe_b_mean                    =   5.4478421055207E-04
(PID.TID 0000.0001) %MON ke_max                       =   9.7818697128063E-01
(PID.TID 0000.0001) %MON ke_mean                      =   4.7462081856244E-04
(PID.TID 0000.0001) %MON ke_vol                       =   1.3349982707951E+18
(PID.TID 0000.0001) %MON vort_r_min                   =  -2.4441975309595E-05
(PID.TID 0000.0001) %MON vort_r_max                   =   3.9186200901200E-05
(PID.TID 0000.0001) %MON vort_a_mean                  =  -1.9727864647440E-05
(PID.TID 0000.0001) %MON vort_a_sd                    =   7.4543150877641E-05
(PID.TID 0000.0001) %MON vort_p_mean                  =  -2.1760525836310E-05
(PID.TID 0000.0001) %MON vort_p_sd                    =   9.7242706657956E-05
(PID.TID 0000.0001) %MON surfExpan_theta_mean         =  -3.2207714539313E-07
(PID.TID 0000.0001) %MON surfExpan_salt_mean          =   2.9572018853060E-08
(PID.TID 0000.0001) // =======================================================
(PID.TID 0000.0001) // End MONITOR dynamic field statistics
(PID.TID 0000.0001) // =======================================================
 cg2d: Sum(rhs),rhsMax =  -2.20044447014276E+00  4.70827614028613E-02
 cg2d: Sum(rhs),rhsMax =  -2.21268931641857E+00  4.69927048596901E-02
(PID.TID 0000.0001)      cg2d_init_res =   1.08454626192459E-01
(PID.TID 0000.0001)      cg2d_iters(min,last) =      -1      94
(PID.TID 0000.0001)      cg2d_last_res =   6.43215687977900E-06
(PID.TID 0000.0001) // =======================================================
(PID.TID 0000.0001) // Begin MONITOR dynamic field statistics
(PID.TID 0000.0001) // =======================================================
(PID.TID 0000.0001) %MON time_tsnumber                =                    96
(PID.TID 0000.0001) %MON time_secondsf                =   3.4560000000000E+05
(PID.TID 0000.0001) %MON dynstat_eta_max              =   1.0488202554128E+00
(PID.TID 0000.0001) %MON dynstat_eta_min              =  -1.9891052141701E+00
(PID.TID 0000.0001) %MON dynstat_eta_mean             =   1.1199108790255E-03
(PID.TID 0000.0001) %MON dynstat_eta_sd               =   6.4312525748550E-01
(PID.TID 0000.0001) %MON dynstat_eta_del2             =   7.2673424923068E-05
(PID.TID 0000.0001) %MON dynstat_uvel_max             =   1.1679888910664E+00
(PID.TID 0000.0001) %MON dynstat_uvel_min             =  -8.6812918428297E-01
(PID.TID 0000.0001) %MON dynstat_uvel_mean            =   1.1065791312612E-03
(PID.TID 0000.0001) %MON dynstat_uvel_sd              =   2.1818962324809E-02
(PID.TID 0000.0001) %MON dynstat_uvel_del2            =   1.2653496275195E-05
(PID.TID 0000.0001) %MON dynstat_vvel_max             =   1.3961920336755E+00
(PID.TID 0000.0001) %MON dynstat_vvel_min             =  -8.1351237110961E-01
(PID.TID 0000.0001) %MON dynstat_vvel_mean            =   1.0709078778328E-03
(PID.TID 0000.0001) %MON dynstat_vvel_sd              =   2.2498857257560E-02
(PID.TID 0000.0001) %MON dynstat_vvel_del2            =   1.2884688877051E-05
(PID.TID 0000.0001) %MON dynstat_wvel_max             =   6.2582540184215E-04
(PID.TID 0000.0001) %MON dynstat_wvel_min             =  -9.0012188093305E-04
(PID.TID 0000.0001) %MON dynstat_wvel_mean            =   8.4958596995729E-09
(PID.TID 0000.0001) %MON dynstat_wvel_sd              =   2.4519563907341E-05
(PID.TID 0000.0001) %MON dynstat_wvel_del2            =   2.2769398181306E-08
(PID.TID 0000.0001) %MON dynstat_theta_max            =   3.2326370203823E+01
(PID.TID 0000.0001) %MON dynstat_theta_min            =  -2.0416357350453E+00
(PID.TID 0000.0001) %MON dynstat_theta_mean           =   3.5904419399504E+00
(PID.TID 0000.0001) %MON dynstat_theta_sd             =   4.4360946451155E+00
(PID.TID 0000.0001) %MON dynstat_theta_del2           =   1.0386542929185E-04
(PID.TID 0000.0001) %MON dynstat_salt_max             =   4.0711548203446E+01
(PID.TID 0000.0001) %MON dynstat_salt_min             =   4.6384659158797E+00
(PID.TID 0000.0001) %MON dynstat_salt_mean            =   3.4725421279675E+01
(PID.TID 0000.0001) %MON dynstat_salt_sd              =   3.7336619228144E-01
(PID.TID 0000.0001) %MON dynstat_salt_del2            =   2.7780581361729E-05
(PID.TID 0000.0001) %MON dynstat_sst_max              =   3.2326358567962E+01
(PID.TID 0000.0001) %MON dynstat_sst_min              =  -1.9176789666247E+00
(PID.TID 0000.0001) %MON dynstat_sst_mean             =   1.8458836261621E+01
(PID.TID 0000.0001) %MON dynstat_sst_sd               =   1.0168534029768E+01
(PID.TID 0000.0001) %MON dynstat_sst_del2             =   8.6072546353993E-04
(PID.TID 0000.0001) %MON dynstat_sss_max              =   3.8307118232155E+01
(PID.TID 0000.0001) %MON dynstat_sss_min              =   4.6384659158797E+00
(PID.TID 0000.0001) %MON dynstat_sss_mean             =   3.4630276787721E+01
(PID.TID 0000.0001) %MON dynstat_sss_sd               =   9.7545781520491E-01
(PID.TID 0000.0001) %MON dynstat_sss_del2             =   6.9344097808723E-04
(PID.TID 0000.0001) %MON forcing_qnet_max             =   2.8201052246094E+03
(PID.TID 0000.0001) %MON forcing_qnet_min             =  -1.1941887207031E+03
(PID.TID 0000.0001) %MON forcing_qnet_mean            =  -2.2720952553572E+01
(PID.TID 0000.0001) %MON forcing_qnet_sd              =   1.8709940918161E+02
(PID.TID 0000.0001) %MON forcing_qnet_del2            =   5.5225666093998E-01
(PID.TID 0000.0001) %MON forcing_qsw_max              =   0.0000000000000E+00
(PID.TID 0000.0001) %MON forcing_qsw_min              =  -4.2423956794665E+02
(PID.TID 0000.0001) %MON forcing_qsw_mean             =  -8.7790592931618E+01
(PID.TID 0000.0001) %MON forcing_qsw_sd               =   1.2140841913769E+02
(PID.TID 0000.0001) %MON forcing_qsw_del2             =   1.9168450456140E-01
(PID.TID 0000.0001) %MON forcing_empmr_max            =   5.4394532926381E-03
(PID.TID 0000.0001) %MON forcing_empmr_min            =  -9.3655750155449E-02
(PID.TID 0000.0001) %MON forcing_empmr_mean           =  -1.7714513750843E-06
(PID.TID 0000.0001) %MON forcing_empmr_sd             =   3.9014023876972E-04
(PID.TID 0000.0001) %MON forcing_empmr_del2           =   2.6507375944076E-06
(PID.TID 0000.0001) %MON forcing_fu_max               =   8.2692646980286E-01
(PID.TID 0000.0001) %MON forcing_fu_min               =  -6.4187207818031E-01
(PID.TID 0000.0001) %MON forcing_fu_mean              =   9.9338438218074E-03
(PID.TID 0000.0001) %MON forcing_fu_sd                =   9.7001867293409E-02
(PID.TID 0000.0001) %MON forcing_fu_del2              =   1.2911377466732E-04
(PID.TID 0000.0001) %MON forcing_fv_max               =   1.0366144776344E+00
(PID.TID 0000.0001) %MON forcing_fv_min               =  -7.5555461730685E-01
(PID.TID 0000.0001) %MON forcing_fv_mean              =  -9.5585547129074E-03
(PID.TID 0000.0001) %MON forcing_fv_sd                =   1.0107358220529E-01
(PID.TID 0000.0001) %MON forcing_fv_del2              =   1.1152096499191E-04
(PID.TID 0000.0001) %MON trAdv_CFL_u_max              =   6.0173156060636E-02
(PID.TID 0000.0001) %MON trAdv_CFL_v_max              =   9.5422866934267E-02
(PID.TID 0000.0001) %MON trAdv_CFL_w_max              =   1.4990533730338E-01
(PID.TID 0000.0001) %MON advcfl_uvel_max              =   5.7452495847245E-02
(PID.TID 0000.0001) %MON advcfl_vvel_max              =   9.9134683969450E-02
(PID.TID 0000.0001) %MON advcfl_wvel_max              =   1.5314535334153E-01
(PID.TID 0000.0001) %MON advcfl_W_hf_max              =   1.6062572968180E-01
(PID.TID 0000.0001) %MON pe_b_mean                    =   5.4406476061256E-04
(PID.TID 0000.0001) %MON ke_max                       =   9.5144501743310E-01
(PID.TID 0000.0001) %MON ke_mean                      =   4.7478530807200E-04
(PID.TID 0000.0001) %MON ke_vol                       =   1.3349982756641E+18
(PID.TID 0000.0001) %MON vort_r_min                   =  -2.4048807113682E-05
(PID.TID 0000.0001) %MON vort_r_max                   =   3.8615307924848E-05
(PID.TID 0000.0001) %MON vort_a_mean                  =  -1.9727864647440E-05
(PID.TID 0000.0001) %MON vort_a_sd                    =   7.4543151804960E-05
(PID.TID 0000.0001) %MON vort_p_mean                  =  -2.1760525741928E-05
(PID.TID 0000.0001) %MON vort_p_sd                    =   9.7242747894850E-05
(PID.TID 0000.0001) %MON surfExpan_theta_mean         =  -3.0497328577849E-07
(PID.TID 0000.0001) %MON surfExpan_salt_mean          =   2.3965405665956E-08
(PID.TID 0000.0001) // =======================================================
(PID.TID 0000.0001) // End MONITOR dynamic field statistics
(PID.TID 0000.0001) // =======================================================
 cg2d: Sum(rhs),rhsMax =  -2.22311602103409E+00  4.68983185290304E-02
