(PID.TID 0000.0001) 
(PID.TID 0000.0001) // ======================================================
(PID.TID 0000.0001) //                      MITgcm UV
(PID.TID 0000.0001) //                      =========
(PID.TID 0000.0001) // ======================================================
(PID.TID 0000.0001) // execution environment starting up...
(PID.TID 0000.0001) 
(PID.TID 0000.0001) // MITgcmUV version:  checkpoint66k
(PID.TID 0000.0001) // Build user:        dmenemen
(PID.TID 0000.0001) // Build host:        r511i0n11
(PID.TID 0000.0001) // Build date:        Sun Oct  1 07:48:59 PDT 2017
(PID.TID 0000.0001) 
(PID.TID 0000.0001) // =======================================================
(PID.TID 0000.0001) // Execution Environment parameter file "eedata"
(PID.TID 0000.0001) // =======================================================
(PID.TID 0000.0001) ># Example "eedata" file
(PID.TID 0000.0001) ># Lines beginning "#" are comments
(PID.TID 0000.0001) ># nTx - No. threads per process in X
(PID.TID 0000.0001) ># nTy - No. threads per process in Y
(PID.TID 0000.0001) > &EEPARMS
(PID.TID 0000.0001) > useCubedSphereExchange=.TRUE.,
(PID.TID 0000.0001) > nTx=1,
(PID.TID 0000.0001) > nTy=1,
(PID.TID 0000.0001) > &
(PID.TID 0000.0001) 
(PID.TID 0000.0001) // =======================================================
(PID.TID 0000.0001) // Computational Grid Specification ( see files "SIZE.h" )
(PID.TID 0000.0001) //                                  ( and "eedata"       )
(PID.TID 0000.0001) // =======================================================
(PID.TID 0000.0001)      nPx =   96 ; /* No. processes in X */
(PID.TID 0000.0001)      nPy =    1 ; /* No. processes in Y */
(PID.TID 0000.0001)      nSx =    1 ; /* No. tiles in X per process */
(PID.TID 0000.0001)      nSy =    1 ; /* No. tiles in Y per process */
(PID.TID 0000.0001)      sNx =   30 ; /* Tile size in X */
(PID.TID 0000.0001)      sNy =   30 ; /* Tile size in Y */
(PID.TID 0000.0001)      OLx =    8 ; /* Tile overlap distance in X */
(PID.TID 0000.0001)      OLy =    8 ; /* Tile overlap distance in Y */
(PID.TID 0000.0001)      nTx =    1 ; /* No. threads in X per process */
(PID.TID 0000.0001)      nTy =    1 ; /* No. threads in Y per process */
(PID.TID 0000.0001)       Nr =   50 ; /* No. levels in the vertical   */
(PID.TID 0000.0001)       Nx = 2880 ; /* Total domain size in X ( = nPx*nSx*sNx ) */
(PID.TID 0000.0001)       Ny =   30 ; /* Total domain size in Y ( = nPy*nSy*sNy ) */
(PID.TID 0000.0001)   nTiles =    1 ; /* Total no. tiles per process ( = nSx*nSy ) */
(PID.TID 0000.0001)   nProcs =   96 ; /* Total no. processes ( = nPx*nPy ) */
(PID.TID 0000.0001) nThreads =    1 ; /* Total no. threads per process ( = nTx*nTy ) */
(PID.TID 0000.0001) usingMPI =    T ; /* Flag used to control whether MPI is in use */
(PID.TID 0000.0001)                   /*  note: To execute a program with MPI calls */
(PID.TID 0000.0001)                   /*  it must be launched appropriately e.g     */
(PID.TID 0000.0001)                   /*  "mpirun -np 64 ......"                    */
(PID.TID 0000.0001) useCoupler=    F ;/* Flag used to control communications with   */
(PID.TID 0000.0001)                   /*  other model components, through a coupler */
(PID.TID 0000.0001) debugMode =    F ; /* print debug msg. (sequence of S/R calls)  */
(PID.TID 0000.0001) printMapIncludesZeros=    F ; /* print zeros in Std.Output maps */
(PID.TID 0000.0001) maxLengthPrt1D=   65 /* maxLength of 1D array printed to StdOut */
(PID.TID 0000.0001) 
(PID.TID 0000.0001) ======= Starting MPI parallel Run =========
(PID.TID 0000.0001)  My Processor Name (len:  9 ) = r511i0n11
(PID.TID 0000.0001)  Located at (  0,  0) on processor grid (0: 95,0:  0)
(PID.TID 0000.0001)  Origin at  (     1,     1) on global grid (1:  2880,1:    30)
(PID.TID 0000.0001)  North neighbor = processor 0000
(PID.TID 0000.0001)  South neighbor = processor 0000
(PID.TID 0000.0001)   East neighbor = processor 0001
(PID.TID 0000.0001)   West neighbor = processor 0095
(PID.TID 0000.0001) // ======================================================
(PID.TID 0000.0001) // Mapping of tiles to threads
(PID.TID 0000.0001) // ======================================================
(PID.TID 0000.0001) // -o- Thread   1, tiles (   1:   1,   1:   1)
(PID.TID 0000.0001) 
(PID.TID 0000.0001) W2_READPARMS: opening data.exch2
(PID.TID 0000.0001)  OPEN_COPY_DATA_FILE: opening file data.exch2
(PID.TID 0000.0001) // =======================================================
(PID.TID 0000.0001) // Parameter file "data.exch2"
(PID.TID 0000.0001) // =======================================================
(PID.TID 0000.0001) ># EXCH2 Package: Wrapper-2 User Choice
(PID.TID 0000.0001) >#--------------------
(PID.TID 0000.0001) >#  preDefTopol   :: pre-defined Topology selector:
(PID.TID 0000.0001) >#                :: = 0 : topology defined from processing "data.exch2";
(PID.TID 0000.0001) >#                :: = 1 : simple, single facet topology;
(PID.TID 0000.0001) >#                :: = 2 : customized topology (w2_set_myown_facets)
(PID.TID 0000.0001) >#                :: = 3 : 6-facet Cube (3 face-dims: nRed, nGreen, nBlue).
(PID.TID 0000.0001) >#  dimsFacets    :: facet pair of dimensions (n1x,n1y, n2x,n2y ...)
(PID.TID 0000.0001) >#  facetEdgeLink :: Face-Edge connectivity map:
(PID.TID 0000.0001) >#    facetEdgeLink(i,j)=XX.1 : face(j)-edge(i) (i=1,2,3,4 <==> N,S,E,W)
(PID.TID 0000.0001) >#    is connected to Northern edge of face "XX" ; similarly,
(PID.TID 0000.0001) >#    = XX.2 : to Southern.E, XX.3 = Eastern.E, XX.4 = Western.E of face "XX"
(PID.TID 0000.0001) >#  blankList     :: List of "blank" tiles
(PID.TID 0000.0001) >#  W2_mapIO      :: global map IO selector (-1 = old type ; 0 = 1 long line in X
(PID.TID 0000.0001) >#                :: 1 = compact, mostly in Y dir)
(PID.TID 0000.0001) >#  W2_printMsg   :: option for information messages printing
(PID.TID 0000.0001) >#                :: <0 : write to log file ; =0 : minimum print ;
(PID.TID 0000.0001) >#                :: =1 : no duplicated print ; =2 : all processes do print
(PID.TID 0000.0001) >#--------------------
(PID.TID 0000.0001) > &W2_EXCH2_PARM01
(PID.TID 0000.0001) ># W2_printMsg= 0,
(PID.TID 0000.0001) >  W2_mapIO   = 1,
(PID.TID 0000.0001) >#
(PID.TID 0000.0001) >  preDefTopol=0,
(PID.TID 0000.0001) >#-- 5 facets llc_120 topology (drop facet 6 and its connection):
(PID.TID 0000.0001) >  dimsFacets(1:10) = 90, 270, 90, 270, 90, 90, 270, 90, 270, 90,
(PID.TID 0000.0001) >  facetEdgeLink(1:4,1)= 3.4, 0. , 2.4, 5.1,
(PID.TID 0000.0001) >  facetEdgeLink(1:4,2)= 3.2, 0. , 4.2, 1.3,
(PID.TID 0000.0001) >  facetEdgeLink(1:4,3)= 5.4, 2.1, 4.4, 1.1,
(PID.TID 0000.0001) >  facetEdgeLink(1:4,4)= 5.2, 2.3, 0. , 3.3,
(PID.TID 0000.0001) >  facetEdgeLink(1:4,5)= 1.4, 4.1, 0. , 3.1,
(PID.TID 0000.0001) >#-- full 6 facets llc_120 topology (equivalent to default preDefTopol=3):
(PID.TID 0000.0001) ># dimsFacets(1:12) = 120, 360, 120, 360, 120, 120, 360, 120, 360, 120, 120, 120,
(PID.TID 0000.0001) ># facetEdgeLink(1:4,1)= 3.4, 6.1, 2.4, 5.1,
(PID.TID 0000.0001) ># facetEdgeLink(1:4,2)= 3.2, 6.3, 4.2, 1.3,
(PID.TID 0000.0001) ># facetEdgeLink(1:4,3)= 5.4, 2.1, 4.4, 1.1,
(PID.TID 0000.0001) ># facetEdgeLink(1:4,4)= 5.2, 2.3, 6.2, 3.3,
(PID.TID 0000.0001) ># facetEdgeLink(1:4,5)= 1.4, 4.1, 6.4, 3.1,
(PID.TID 0000.0001) ># facetEdgeLink(1:4,6)= 1.2, 4.3, 2.2, 5.3,
(PID.TID 0000.0001) >#
(PID.TID 0000.0001) >#90x30   nprocs = 36
(PID.TID 0000.0001) ># blankList(1:3)=1,10,11,
(PID.TID 0000.0001) >#30x90
(PID.TID 0000.0001) >#
(PID.TID 0000.0001) >#45x30   nprocs = 72
(PID.TID 0000.0001) ># blankList(1:6)=1,2,19,20,21,22
(PID.TID 0000.0001) >#30x45   nprocs = 68
(PID.TID 0000.0001) ># blankList(1:10)=2,3,19,20,21,35,51,60,69,78
(PID.TID 0000.0001) >#45x45   nprocs = 48
(PID.TID 0000.0001) ># blankList(1:4)=2,13,14,23
(PID.TID 0000.0001) >#30x30   nprocs = 96
(PID.TID 0000.0001) >  blankList(1:21)=1,2,3,5,6,28,29,30,31,32,33,49,50,52,53,72,81,90,99,108,117
(PID.TID 0000.0001) >#30x30   nprocs = 112
(PID.TID 0000.0001) ># blankList(1:5)=2,3,28,29,30
(PID.TID 0000.0001) >#15x30   nprocs = 192
(PID.TID 0000.0001) ># blankList(1:42)=1,2,3,4,5,6,9,10,11,12,55,56,57,58,59,60,61,62,63,64,65,66,
(PID.TID 0000.0001) >#            97,98,99,100,103,104,105,106,143,144,
(PID.TID 0000.0001) >#            161,162,179,180,197,198,215,216,233,234
(PID.TID 0000.0001) >#15x15   nprocs = 360
(PID.TID 0000.0001) ># blankList(1:108)=1,2,3,4,5,6,7,8,9,10,11,12,14,15,16,17,18,21,22,23,24,
(PID.TID 0000.0001) >#  65,71,75,76,90,95,96,101,102,109,110,111,112,113,114,115,116,117,118,119,
(PID.TID 0000.0001) >#  120,121,122,123,124,125,126,127,128,129,130,131,132,
(PID.TID 0000.0001) >#  188,189,190,193,194,195,196,199,
(PID.TID 0000.0001) >#  200,201,202,203,205,206,207,208,209,211,212,213,214,215,216,242,247,253,
(PID.TID 0000.0001) >#  267,268,269,270,287,288,305,306,323,324,341,342,359,360,362,376,377,378,
(PID.TID 0000.0001) >#  380,381,382,395,396,400,412,413,414,430,
(PID.TID 0000.0001) >#note: it seems that 8 of the followig 9 tiles could be added to 15x15 blank
(PID.TID 0000.0001) >#  list to reach 352=22*16 cores : 431 432 440 441 448 449 450 467 468
(PID.TID 0000.0001) > &
(PID.TID 0000.0001) 
(PID.TID 0000.0001) W2_READPARMS: finished reading data.exch2
(PID.TID 0000.0001) W2_useE2ioLayOut=    T ;/* T: use Exch2 glob IO map; F: use model default */
(PID.TID 0000.0001) W2_mapIO        =   1 ; /* select option for Exch2 global-IO map */
(PID.TID 0000.0001) W2_printMsg     =  -1 ; /* select option for printing information */
(PID.TID 0000.0001) ===== Start setting W2 TOPOLOGY:
(PID.TID 0000.0001)  write to log-file: w2_tile_topology.0000.log
(PID.TID 0000.0001) =====       setting W2 TOPOLOGY: Done
(PID.TID 0000.0001) 
(PID.TID 0000.0001)  INI_PARMS: opening model parameter file "data"
(PID.TID 0000.0001)  OPEN_COPY_DATA_FILE: opening file data
(PID.TID 0000.0001) // =======================================================
(PID.TID 0000.0001) // Parameter file "data"
(PID.TID 0000.0001) // =======================================================
(PID.TID 0000.0001) ># ====================
(PID.TID 0000.0001) ># | Model parameters |
(PID.TID 0000.0001) ># ====================
(PID.TID 0000.0001) >#
(PID.TID 0000.0001) ># Continuous equation parameters
(PID.TID 0000.0001) > &PARM01
(PID.TID 0000.0001) > tRef               = 3*23.,3*22.,21.,2*20.,19.,2*18.,17.,2*16.,15.,14.,13.,
(PID.TID 0000.0001) >                      12.,11.,2*9.,8.,7.,2*6.,2*5.,3*4.,3*3.,4*2.,12*1.,
(PID.TID 0000.0001) > sRef               = 50*34.5,
(PID.TID 0000.0001) > viscAr= 5.6614e-04,
(PID.TID 0000.0001) > no_slip_sides = .TRUE.,
(PID.TID 0000.0001) > no_slip_bottom = .TRUE.,
(PID.TID 0000.0001) > diffKrT=5.44e-7,
(PID.TID 0000.0001) > diffKrS=5.44e-7,
(PID.TID 0000.0001) > rhonil=1027.5,
(PID.TID 0000.0001) > rhoConstFresh=999.8,
(PID.TID 0000.0001) > eosType='JMD95Z',
(PID.TID 0000.0001) > hFacMin=0.3,
(PID.TID 0000.0001) > hFacInf=0.1,
(PID.TID 0000.0001) > hFacSup=5.,
(PID.TID 0000.0001) > implicitDiffusion=.TRUE.,
(PID.TID 0000.0001) > implicitViscosity=.TRUE.,
(PID.TID 0000.0001) > viscC4Leith=2.15,
(PID.TID 0000.0001) > viscC4Leithd=2.15,
(PID.TID 0000.0001) > viscA4GridMax=0.8,
(PID.TID 0000.0001) > useAreaViscLength=.TRUE.,
(PID.TID 0000.0001) > highOrderVorticity  = .TRUE.,
(PID.TID 0000.0001) > bottomDragQuadratic = 0.0021,
(PID.TID 0000.0001) > tempAdvScheme=7,
(PID.TID 0000.0001) > saltAdvScheme=7,
(PID.TID 0000.0001) > StaggerTimeStep=.TRUE.,
(PID.TID 0000.0001) > multiDimAdvection=.TRUE.,
(PID.TID 0000.0001) > vectorInvariantMomentum=.TRUE.,
(PID.TID 0000.0001) > implicitFreeSurface=.TRUE.,
(PID.TID 0000.0001) > exactConserv=.TRUE.,
(PID.TID 0000.0001) ># debuglevel=-1,
(PID.TID 0000.0001) > convertFW2Salt=-1.,
(PID.TID 0000.0001) > useRealFreshWaterFlux=.TRUE.,
(PID.TID 0000.0001) > useSingleCPUio=.FALSE.,
(PID.TID 0000.0001) > useSingleCpuInput=.TRUE.,
(PID.TID 0000.0001) > globalFiles=.TRUE.,
(PID.TID 0000.0001) > readBinaryPrec=32,
(PID.TID 0000.0001) > writeBinaryPrec=32,
(PID.TID 0000.0001) > temp_EvPrRn=0.,
(PID.TID 0000.0001) > implicSurfPress = 0.6,
(PID.TID 0000.0001) > implicDiv2DFlow = 0.6,
(PID.TID 0000.0001) > /
(PID.TID 0000.0001) >
(PID.TID 0000.0001) ># Elliptic solver parameters
(PID.TID 0000.0001) > &PARM02
(PID.TID 0000.0001) > cg2dMaxIters = 100,
(PID.TID 0000.0001) > cg2dTargetResidual = 1.E-5,
(PID.TID 0000.0001) > &
(PID.TID 0000.0001) >
(PID.TID 0000.0001) ># Time stepping parameters
(PID.TID 0000.0001) > &PARM03
(PID.TID 0000.0001) > nIter0=1,
(PID.TID 0000.0001) > nTimeSteps=175295,
(PID.TID 0000.0001) > deltaT=900.,
(PID.TID 0000.0001) > abEps = 0.1,
(PID.TID 0000.0001) > forcing_In_AB=.FALSE.,
(PID.TID 0000.0001) > momDissip_In_AB=.FALSE.,
(PID.TID 0000.0001) > chkptFreq   = 43200.0,
(PID.TID 0000.0001) > dumpfreq = 3600.,
(PID.TID 0000.0001) > monitorFreq = 360.,
(PID.TID 0000.0001) > dumpInitAndLast=.FALSE.,
(PID.TID 0000.0001) > monitorFreq = 7200.0,
(PID.TID 0000.0001) > &
(PID.TID 0000.0001) >
(PID.TID 0000.0001) ># Gridding parameters
(PID.TID 0000.0001) > &PARM04
(PID.TID 0000.0001) > usingCurvilinearGrid=.TRUE.,
(PID.TID 0000.0001) > delR =
(PID.TID 0000.0001) >     10.00, 10.00, 10.00, 10.00, 10.00, 10.00, 10.00, 10.01,
(PID.TID 0000.0001) >     10.03, 10.11, 10.32, 10.80, 11.76, 13.42, 16.04, 19.82, 24.85,
(PID.TID 0000.0001) >     31.10, 38.42, 46.50, 55.00, 63.50, 71.58, 78.90, 85.15, 90.18,
(PID.TID 0000.0001) >     93.96, 96.58, 98.25, 99.25,100.01,101.33,104.56,111.33,122.83,
(PID.TID 0000.0001) >     139.09,158.94,180.83,203.55,226.50,249.50,272.50,295.50,318.50,
(PID.TID 0000.0001) >     341.50,364.50,387.50,410.50,433.50,456.50,
(PID.TID 0000.0001) > &
(PID.TID 0000.0001) >
(PID.TID 0000.0001) ># Input datasets
(PID.TID 0000.0001) > &PARM05
(PID.TID 0000.0001) > bathyFile      ='bathy.bin',
(PID.TID 0000.0001) > &
(PID.TID 0000.0001) 
(PID.TID 0000.0001)  INI_PARMS ; starts to read PARM01
(PID.TID 0000.0001)  INI_PARMS ; read PARM01 : OK
(PID.TID 0000.0001)  INI_PARMS ; starts to read PARM02
(PID.TID 0000.0001)  INI_PARMS ; read PARM02 : OK
(PID.TID 0000.0001)  INI_PARMS ; starts to read PARM03
(PID.TID 0000.0001)  INI_PARMS ; read PARM03 : OK
(PID.TID 0000.0001)  INI_PARMS ; starts to read PARM04
(PID.TID 0000.0001)  INI_PARMS ; read PARM04 : OK
(PID.TID 0000.0001)  INI_PARMS ; starts to read PARM05
(PID.TID 0000.0001)  INI_PARMS ; read PARM05 : OK
(PID.TID 0000.0001)  INI_PARMS: finished reading file "data"
(PID.TID 0000.0001)  PACKAGES_BOOT: opening data.pkg
(PID.TID 0000.0001)  OPEN_COPY_DATA_FILE: opening file data.pkg
(PID.TID 0000.0001) // =======================================================
(PID.TID 0000.0001) // Parameter file "data.pkg"
(PID.TID 0000.0001) // =======================================================
(PID.TID 0000.0001) ># Packages
(PID.TID 0000.0001) > &PACKAGES
(PID.TID 0000.0001) > useKPP         = .TRUE.,
(PID.TID 0000.0001) > useFRAZIL      = .TRUE.,
(PID.TID 0000.0001) > /
(PID.TID 0000.0001) 
(PID.TID 0000.0001)  PACKAGES_BOOT: finished reading data.pkg
(PID.TID 0000.0001)  PACKAGES_BOOT: On/Off package Summary
 --------  pkgs with a standard "usePKG" On/Off switch in "data.pkg":  --------
 pkg/kpp                  compiled   and   used ( useKPP                   = T )
 pkg/frazil               compiled   and   used ( useFRAZIL                = T )
 -------- pkgs without standard "usePKG" On/Off switch in "data.pkg":  --------
 pkg/generic_advdiff      compiled   and   used ( useGAD                   = T )
 pkg/mom_common           compiled   and   used ( momStepping              = T )
 pkg/mom_vecinv           compiled   and   used ( +vectorInvariantMomentum = T )
 pkg/mom_fluxform         compiled but not used ( & not vectorInvariantMom = F )
 pkg/monitor              compiled   and   used ( monitorFreq > 0.         = T )
 pkg/debug                compiled but not used ( debugMode                = F )
 pkg/exch2                compiled   and   used
 pkg/rw                   compiled   and   used
 pkg/mdsio                compiled   and   used
(PID.TID 0000.0001)  PACKAGES_BOOT: End of package Summary
(PID.TID 0000.0001) 
(PID.TID 0000.0001)  KPP_INIT: opening data.kpp
(PID.TID 0000.0001)  OPEN_COPY_DATA_FILE: opening file data.kpp
(PID.TID 0000.0001) // =======================================================
(PID.TID 0000.0001) // Parameter file "data.kpp"
(PID.TID 0000.0001) // =======================================================
(PID.TID 0000.0001) ># KPP parameters
(PID.TID 0000.0001) > &KPP_PARM01
(PID.TID 0000.0001) > KPPmixingMaps   = .FALSE.,
(PID.TID 0000.0001) > KPPwriteState   = .FALSE.,
(PID.TID 0000.0001) > kpp_dumpFreq    = 0.,
(PID.TID 0000.0001) > kpp_tavefreq    = 0.,
(PID.TID 0000.0001) > Ricr            = 0.3559,
(PID.TID 0000.0001) > Riinfty         = 0.6998,
(PID.TID 0000.0001) > &
(PID.TID 0000.0001) 
(PID.TID 0000.0001)  KPP_INIT: finished reading data.kpp
(PID.TID 0000.0001) SET_PARMS: done
(PID.TID 0000.0001) Enter INI_VERTICAL_GRID: setInterFDr=    T ; setCenterDr=    F
(PID.TID 0000.0001) tile:   4 ; Read from file tile001.mitgrid
(PID.TID 0000.0001)   => xC yC dxF dyF rA xG yG dxV dyU rAz dxC dyC rAw rAs dxG dyG
(PID.TID 0000.0001) %MON XC_max                       =   1.7997758946678E+02
(PID.TID 0000.0001) %MON XC_min                       =  -1.7998895680928E+02
(PID.TID 0000.0001) %MON XC_mean                      =  -6.8997670631350E+00
(PID.TID 0000.0001) %MON XC_sd                        =   1.0548127462941E+02
(PID.TID 0000.0001) %MON XG_max                       =   1.8000000000000E+02
(PID.TID 0000.0001) %MON XG_min                       =  -1.7999919444240E+02
(PID.TID 0000.0001) %MON XG_mean                      =  -6.3521159278861E+00
(PID.TID 0000.0001) %MON XG_sd                        =   1.0549598176576E+02
(PID.TID 0000.0001) %MON DXC_max                      =   1.1117680031365E+05
(PID.TID 0000.0001) %MON DXC_min                      =   1.3362789164732E+04
(PID.TID 0000.0001) %MON DXC_mean                     =   7.1345115143606E+04
(PID.TID 0000.0001) %MON DXC_sd                       =   2.6107013089865E+04
(PID.TID 0000.0001) %MON DXF_max                      =   1.1117680031365E+05
(PID.TID 0000.0001) %MON DXF_min                      =   1.3491575949394E+04
(PID.TID 0000.0001) %MON DXF_mean                     =   7.1334806791260E+04
(PID.TID 0000.0001) %MON DXF_sd                       =   2.6121349328995E+04
(PID.TID 0000.0001) %MON DXG_max                      =   1.1117747335204E+05
(PID.TID 0000.0001) %MON DXG_min                      =   1.0930409249570E+04
(PID.TID 0000.0001) %MON DXG_mean                     =   7.1313583950284E+04
(PID.TID 0000.0001) %MON DXG_sd                       =   2.6131714747840E+04
(PID.TID 0000.0001) %MON DXV_max                      =   1.1117747335204E+05
(PID.TID 0000.0001) %MON DXV_min                      =   9.4742518926426E+03
(PID.TID 0000.0001) %MON DXV_mean                     =   7.1323777998314E+04
(PID.TID 0000.0001) %MON DXV_sd                       =   2.6117603792432E+04
(PID.TID 0000.0001) %MON YC_max                       =   8.9739397429324E+01
(PID.TID 0000.0001) %MON YC_min                       =  -8.1637173529390E+01
(PID.TID 0000.0001) %MON YC_mean                      =  -5.9338515025079E-01
(PID.TID 0000.0001) %MON YC_sd                        =   5.1058908630085E+01
(PID.TID 0000.0001) %MON YG_max                       =   9.0000000000000E+01
(PID.TID 0000.0001) %MON YG_min                       =  -8.1805478609906E+01
(PID.TID 0000.0001) %MON YG_mean                      =  -5.7357831765458E-01
(PID.TID 0000.0001) %MON YG_sd                        =   5.1060174609345E+01
(PID.TID 0000.0001) %MON DYC_max                      =   1.1117680031365E+05
(PID.TID 0000.0001) %MON DYC_min                      =   1.3362789164732E+04
(PID.TID 0000.0001) %MON DYC_mean                     =   7.0982792089666E+04
(PID.TID 0000.0001) %MON DYC_sd                       =   2.6607387075348E+04
(PID.TID 0000.0001) %MON DYF_max                      =   1.1117680031365E+05
(PID.TID 0000.0001) %MON DYF_min                      =   1.3491575949394E+04
(PID.TID 0000.0001) %MON DYF_mean                     =   7.1000127494934E+04
(PID.TID 0000.0001) %MON DYF_sd                       =   2.6603606017547E+04
(PID.TID 0000.0001) %MON DYG_max                      =   1.1117747335204E+05
(PID.TID 0000.0001) %MON DYG_min                      =   1.0930409249570E+04
(PID.TID 0000.0001) %MON DYG_mean                     =   7.1022116512585E+04
(PID.TID 0000.0001) %MON DYG_sd                       =   2.6571715830406E+04
(PID.TID 0000.0001) %MON DYU_max                      =   1.1117747335204E+05
(PID.TID 0000.0001) %MON DYU_min                      =   9.4742518926426E+03
(PID.TID 0000.0001) %MON DYU_mean                     =   7.1004694583927E+04
(PID.TID 0000.0001) %MON DYU_sd                       =   2.6575655787476E+04
(PID.TID 0000.0001) %MON RA_max                       =   1.1896090857160E+10
(PID.TID 0000.0001) %MON RA_min                       =   2.1263387742345E+08
(PID.TID 0000.0001) %MON RA_mean                      =   5.6344293572480E+09
(PID.TID 0000.0001) %MON RA_sd                        =   3.5929461176606E+09
(PID.TID 0000.0001) %MON RAW_max                      =   1.1896090856781E+10
(PID.TID 0000.0001) %MON RAW_min                      =   1.7369571508711E+08
(PID.TID 0000.0001) %MON RAW_mean                     =   5.6355850434318E+09
(PID.TID 0000.0001) %MON RAW_sd                       =   3.5915487677190E+09
(PID.TID 0000.0001) %MON RAS_max                      =   1.1896090856781E+10
(PID.TID 0000.0001) %MON RAS_min                      =   1.7369571508711E+08
(PID.TID 0000.0001) %MON RAS_mean                     =   5.6320332286162E+09
(PID.TID 0000.0001) %MON RAS_sd                       =   3.5937184228135E+09
(PID.TID 0000.0001) %MON RAZ_max                      =   1.1891903479271E+10
(PID.TID 0000.0001) %MON RAZ_min                      =   1.0413402423292E+08
(PID.TID 0000.0001) %MON RAZ_mean                     =   5.6331824674695E+09
(PID.TID 0000.0001) %MON RAZ_sd                       =   3.5923307220197E+09
(PID.TID 0000.0001) %MON AngleCS_max                  =   1.0000000000000E+00
(PID.TID 0000.0001) %MON AngleCS_min                  =  -9.9996641938864E-01
(PID.TID 0000.0001) %MON AngleCS_mean                 =   4.0572930529500E-01
(PID.TID 0000.0001) %MON AngleCS_sd                   =   5.3874397836718E-01
(PID.TID 0000.0001) %MON AngleSN_max                  =   9.9996641938864E-01
(PID.TID 0000.0001) %MON AngleSN_min                  =  -1.0000000000000E+00
(PID.TID 0000.0001) %MON AngleSN_mean                 =  -4.9986154624599E-01
(PID.TID 0000.0001) %MON AngleSN_sd                   =   5.4339404779819E-01
(PID.TID 0000.0001)  MDS_READ_FIELD: opening global file: bathy.bin
(PID.TID 0000.0001) // =======================================================
(PID.TID 0000.0001) // Field Model R_low (ini_masks_etc)
(PID.TID 0000.0001) // CMIN =         -4.957150000000000E+03
(PID.TID 0000.0001) // CMAX =         -1.998999977111816E+01
(PID.TID 0000.0001) // CINT =          1.828577777862549E+02
(PID.TID 0000.0001) // SYMBOLS (CMIN->CMAX): -abcdefghijklmnopqrstuvwxyz+
(PID.TID 0000.0001) //                  0.0: .
(PID.TID 0000.0001) // RANGE I (Lo:Hi:Step):(    -7:    38:     1)
(PID.TID 0000.0001) // RANGE J (Lo:Hi:Step):(    38:    -7:    -1)
(PID.TID 0000.0001) // RANGE K (Lo:Hi:Step):(   1:   1:   1)
(PID.TID 0000.0001) // =======================================================
(PID.TID 0000.0001) K =   1
(PID.TID 0000.0001) //                I=2       I=12      I=22      I=32
(PID.TID 0000.0001) // |--J--|765432101|345678901|345678901|345678901|345678
(PID.TID 0000.0001) //     38 eeedddcccbbbbbbbbaaaaaaaa--aaaaa---aaaaaabbcbb
(PID.TID 0000.0001) //     37 feeddddcccbbbbbbbbaaaaaaaaaaaaaaa-aaaaaaabcccb
(PID.TID 0000.0001) //     36 gfeeddddcccccbbbbbaaaaaaaaaaaaaaaaaabccbcdddcc
(PID.TID 0000.0001) //     35 gfeeedddccccccbbbbaaaaaaaaaaaaaaaaabdeffeefedd
(PID.TID 0000.0001) //     34 ffeeeedddcccccbbbbbaaaaaaaaaaaaaaabcefhkkhgggg
(PID.TID 0000.0001) //     33 gffeeeddddcccccbbbbbaaaaaaaaaaaaabcdfgilmliijk
(PID.TID 0000.0001) //     32 gffffeeddddcccccbbbbbbbbbbbbbaaaabdgijklnmlklp
(PID.TID 0000.0001) //     31 ggggffeeddddcccccbbbbbbbbbbbbbaabehlnn........
(PID.TID 0000.0001) //     30 hggggfeeedddddcccccccccccbbbbbbcgknpr.........
(PID.TID 0000.0001) //     29 ihhggffeeeeeddddcccccccccccccdfimpr...........
(PID.TID 0000.0001) //     28 jjihggfffffeeeddddddddddcccdfilnqu............
(PID.TID 0000.0001) //     27 llkjihggggggffeeeeeeeedddddfjnqyy.............
(PID.TID 0000.0001) //     26 onlljihhgggggggffefffeeeeeginsyy..............
(PID.TID 0000.0001) //     25 rqonlkjiihhhghhgfffggfffghjouz................
(PID.TID 0000.0001) //     24 utrpomlkjiihhhhhggghhghijl+...................
(PID.TID 0000.0001) //     23 wvusqpnmlkkjjjjiiiiiijlnqz....................
(PID.TID 0000.0001) //     22 xxwvtsrponmllmmlllkkknsxz.....................
(PID.TID 0000.0001) //     21 yxxxwwvusqpqrsrqonmmny+z......................
(PID.TID 0000.0001) //     20 yyyyyyyxxwvwwwwvusrwx.........................
(PID.TID 0000.0001) //     19 yyyyyyyyyyyxxxxxxxyyx.........................
(PID.TID 0000.0001) //     18 yyyyyyyyyyxxxxxxyyyyy.........................
(PID.TID 0000.0001) //     17 yyyyyyyyyxxxwwxxyyy...........................
(PID.TID 0000.0001) //     16 yyyyyyyyxxwwwwxyyyz...........................
(PID.TID 0000.0001) //     15 yyyyyyyxwwwvwxyyz.............................
(PID.TID 0000.0001) //     14 yyyyyxxwwvvvxyz...............................
(PID.TID 0000.0001) //     13 zyyyyxwwvvvwy.................................
(PID.TID 0000.0001) //     12 zzyyxxwvuuvx..................................
(PID.TID 0000.0001) //     11 ++zyyxwvuvw...................................
(PID.TID 0000.0001) //     10 ..............................................
(PID.TID 0000.0001) //      9 ..............................................
(PID.TID 0000.0001) //      8 ..............................................
(PID.TID 0000.0001) //      7 ..............................................
(PID.TID 0000.0001) //      6 ..............................................
(PID.TID 0000.0001) //      5 ..............................................
(PID.TID 0000.0001) //      4 ..............................................
(PID.TID 0000.0001) //      3 ..............................................
(PID.TID 0000.0001) //      2 ..............................................
(PID.TID 0000.0001) //      1 ..............................................
(PID.TID 0000.0001) //      0 ..............................................
(PID.TID 0000.0001) //     -1 ..............................................
(PID.TID 0000.0001) //     -2 ..............................................
(PID.TID 0000.0001) //     -3 ..............................................
(PID.TID 0000.0001) //     -4 ..............................................
(PID.TID 0000.0001) //     -5 ..............................................
(PID.TID 0000.0001) //     -6 ..............................................
(PID.TID 0000.0001) //     -7 ..............................................
(PID.TID 0000.0001) // =======================================================
(PID.TID 0000.0001) // END OF FIELD                                          =
(PID.TID 0000.0001) // =======================================================
(PID.TID 0000.0001) 
(PID.TID 0000.0001) // =======================================================
(PID.TID 0000.0001) // Field Model Ro_surf (ini_masks_etc)
(PID.TID 0000.0001) // CMIN =          1.000000000000000E+32
(PID.TID 0000.0001) // CMAX =         -1.000000000000000E+32
(PID.TID 0000.0001) // CINT =          0.000000000000000E+00
(PID.TID 0000.0001) // SYMBOLS (CMIN->CMAX): -abcdefghijklmnopqrstuvwxyz+
(PID.TID 0000.0001) //                  0.0: .
(PID.TID 0000.0001) // RANGE I (Lo:Hi:Step):(    -7:    38:     1)
(PID.TID 0000.0001) // RANGE J (Lo:Hi:Step):(    38:    -7:    -1)
(PID.TID 0000.0001) // RANGE K (Lo:Hi:Step):(   1:   1:   1)
(PID.TID 0000.0001) // =======================================================
(PID.TID 0000.0001) // =======================================================
(PID.TID 0000.0001) // END OF FIELD                                          =
(PID.TID 0000.0001) // =======================================================
(PID.TID 0000.0001) 
(PID.TID 0000.0001) // =======================================================
(PID.TID 0000.0001) // Field hFacC at iteration          0
(PID.TID 0000.0001) // CMIN =          1.000000000000000E+00
(PID.TID 0000.0001) // CMAX =          1.000000000000000E+00
(PID.TID 0000.0001) // CINT =          0.000000000000000E+00
(PID.TID 0000.0001) // SYMBOLS (CMIN->CMAX): -abcdefghijklmnopqrstuvwxyz+
(PID.TID 0000.0001) //                  0.0: .
(PID.TID 0000.0001) // RANGE I (Lo:Hi:Step):(    -7:    38:     1)
(PID.TID 0000.0001) // RANGE J (Lo:Hi:Step):(    38:    -7:    -1)
(PID.TID 0000.0001) // RANGE K (Lo:Hi:Step):(   1:   1:   1)
(PID.TID 0000.0001) // =======================================================
(PID.TID 0000.0001) // =======================================================
(PID.TID 0000.0001) // END OF FIELD                                          =
(PID.TID 0000.0001) // =======================================================
(PID.TID 0000.0001) 
(PID.TID 0000.0001) // =======================================================
(PID.TID 0000.0001) // Field hFacW at iteration          0
(PID.TID 0000.0001) // CMIN =          1.000000000000000E+00
(PID.TID 0000.0001) // CMAX =          1.000000000000000E+00
(PID.TID 0000.0001) // CINT =          0.000000000000000E+00
(PID.TID 0000.0001) // SYMBOLS (CMIN->CMAX): -abcdefghijklmnopqrstuvwxyz+
(PID.TID 0000.0001) //                  0.0: .
(PID.TID 0000.0001) // RANGE I (Lo:Hi:Step):(    -7:    38:     1)
(PID.TID 0000.0001) // RANGE J (Lo:Hi:Step):(    38:    -7:    -1)
(PID.TID 0000.0001) // RANGE K (Lo:Hi:Step):(   1:   1:   1)
(PID.TID 0000.0001) // =======================================================
(PID.TID 0000.0001) // =======================================================
(PID.TID 0000.0001) // END OF FIELD                                          =
(PID.TID 0000.0001) // =======================================================
(PID.TID 0000.0001) 
(PID.TID 0000.0001) // =======================================================
(PID.TID 0000.0001) // Field hFacS at iteration          0
(PID.TID 0000.0001) // CMIN =          1.000000000000000E+00
(PID.TID 0000.0001) // CMAX =          1.000000000000000E+00
(PID.TID 0000.0001) // CINT =          0.000000000000000E+00
(PID.TID 0000.0001) // SYMBOLS (CMIN->CMAX): -abcdefghijklmnopqrstuvwxyz+
(PID.TID 0000.0001) //                  0.0: .
(PID.TID 0000.0001) // RANGE I (Lo:Hi:Step):(    -7:    38:     1)
(PID.TID 0000.0001) // RANGE J (Lo:Hi:Step):(    38:    -7:    -1)
(PID.TID 0000.0001) // RANGE K (Lo:Hi:Step):(   1:   1:   1)
(PID.TID 0000.0001) // =======================================================
(PID.TID 0000.0001) // =======================================================
(PID.TID 0000.0001) // END OF FIELD                                          =
(PID.TID 0000.0001) // =======================================================
(PID.TID 0000.0001) 
(PID.TID 0000.0001) GAD_INIT_FIXED: GAD_OlMinSize=  4  0  2
(PID.TID 0000.0001) 
(PID.TID 0000.0001) // ===================================
(PID.TID 0000.0001) // GAD parameters :
(PID.TID 0000.0001) // ===================================
(PID.TID 0000.0001) tempAdvScheme =   /* Temp. Horiz.Advection scheme selector */
(PID.TID 0000.0001)                       7
(PID.TID 0000.0001)     ;
(PID.TID 0000.0001) tempVertAdvScheme =   /* Temp. Vert. Advection scheme selector */
(PID.TID 0000.0001)                       7
(PID.TID 0000.0001)     ;
(PID.TID 0000.0001) tempMultiDimAdvec =   /* use Muti-Dim Advec method for Temp */
(PID.TID 0000.0001)                   T
(PID.TID 0000.0001)     ;
(PID.TID 0000.0001) tempSOM_Advection = /* use 2nd Order Moment Advection for Temp */
(PID.TID 0000.0001)                   F
(PID.TID 0000.0001)     ;
(PID.TID 0000.0001) AdamsBashforthGt = /* apply Adams-Bashforth extrapolation on Gt */
(PID.TID 0000.0001)                   F
(PID.TID 0000.0001)     ;
(PID.TID 0000.0001) AdamsBashforth_T = /* apply Adams-Bashforth extrapolation on Temp */
(PID.TID 0000.0001)                   F
(PID.TID 0000.0001)     ;
(PID.TID 0000.0001) saltAdvScheme =   /* Salt. Horiz.advection scheme selector */
(PID.TID 0000.0001)                       7
(PID.TID 0000.0001)     ;
(PID.TID 0000.0001) saltVertAdvScheme =   /* Salt. Vert. Advection scheme selector */
(PID.TID 0000.0001)                       7
(PID.TID 0000.0001)     ;
(PID.TID 0000.0001) saltMultiDimAdvec =   /* use Muti-Dim Advec method for Salt */
(PID.TID 0000.0001)                   T
(PID.TID 0000.0001)     ;
(PID.TID 0000.0001) saltSOM_Advection = /* use 2nd Order Moment Advection for Salt */
(PID.TID 0000.0001)                   F
(PID.TID 0000.0001)     ;
(PID.TID 0000.0001) AdamsBashforthGs = /* apply Adams-Bashforth extrapolation on Gs */
(PID.TID 0000.0001)                   F
(PID.TID 0000.0001)     ;
(PID.TID 0000.0001) AdamsBashforth_S = /* apply Adams-Bashforth extrapolation on Salt */
(PID.TID 0000.0001)                   F
(PID.TID 0000.0001)     ;
(PID.TID 0000.0001) // ===================================
(PID.TID 0000.0001) INI_GLOBAL_DOMAIN: Found   0 CS-corner Pts in the domain
(PID.TID 0000.0001) %MON fCori_max                    =   1.4584096177006E-04
(PID.TID 0000.0001) %MON fCori_min                    =  -1.4429171327635E-04
(PID.TID 0000.0001) %MON fCori_mean                   =  -1.9531894197173E-06
(PID.TID 0000.0001) %MON fCori_sd                     =   1.0434730642309E-04
(PID.TID 0000.0001) %MON fCoriG_max                   =   1.4584247033981E-04
(PID.TID 0000.0001) %MON fCoriG_min                   =  -1.4435339896041E-04
(PID.TID 0000.0001) %MON fCoriG_mean                  =  -1.9303770726087E-06
(PID.TID 0000.0001) %MON fCoriG_sd                    =   1.0435958182593E-04
(PID.TID 0000.0001) %MON fCoriCos_max                 =   1.4584158744890E-04
(PID.TID 0000.0001) %MON fCoriCos_min                 =   6.6334365221135E-07
(PID.TID 0000.0001) %MON fCoriCos_mean                =   9.3876998486639E-05
(PID.TID 0000.0001) %MON fCoriCos_sd                  =   3.9559575367967E-05
(PID.TID 0000.0001) INI_CG2D: CG2D normalisation factor =  1.9867335911142027E-04
(PID.TID 0000.0001) 
(PID.TID 0000.0001) // =======================================================
(PID.TID 0000.0001) // Model configuration
(PID.TID 0000.0001) // =======================================================
(PID.TID 0000.0001) //
(PID.TID 0000.0001) // "Physical" paramters ( PARM01 in namelist )
(PID.TID 0000.0001) //
(PID.TID 0000.0001) buoyancyRelation = /* Type of relation to get Buoyancy */
(PID.TID 0000.0001)               'OCEANIC'
(PID.TID 0000.0001)     ;
(PID.TID 0000.0001) fluidIsAir   =  /* fluid major constituent is Air */
(PID.TID 0000.0001)                   F
(PID.TID 0000.0001)     ;
(PID.TID 0000.0001) fluidIsWater =  /* fluid major constituent is Water */
(PID.TID 0000.0001)                   T
(PID.TID 0000.0001)     ;
(PID.TID 0000.0001) usingPCoords =  /* use p (or p*) vertical coordinate */
(PID.TID 0000.0001)                   F
(PID.TID 0000.0001)     ;
(PID.TID 0000.0001) usingZCoords =  /* use z (or z*) vertical coordinate */
(PID.TID 0000.0001)                   T
(PID.TID 0000.0001)     ;
(PID.TID 0000.0001) tRef =   /* Reference temperature profile ( oC or K ) */
(PID.TID 0000.0001)     3 @  2.300000000000000E+01,             /* K =  1:  3 */
(PID.TID 0000.0001)     3 @  2.200000000000000E+01,             /* K =  4:  6 */
(PID.TID 0000.0001)                 2.100000000000000E+01,      /* K =  7 */
(PID.TID 0000.0001)     2 @  2.000000000000000E+01,             /* K =  8:  9 */
(PID.TID 0000.0001)                 1.900000000000000E+01,      /* K = 10 */
(PID.TID 0000.0001)     2 @  1.800000000000000E+01,             /* K = 11: 12 */
(PID.TID 0000.0001)                 1.700000000000000E+01,      /* K = 13 */
(PID.TID 0000.0001)     2 @  1.600000000000000E+01,             /* K = 14: 15 */
(PID.TID 0000.0001)                 1.500000000000000E+01,      /* K = 16 */
(PID.TID 0000.0001)                 1.400000000000000E+01,      /* K = 17 */
(PID.TID 0000.0001)                 1.300000000000000E+01,      /* K = 18 */
(PID.TID 0000.0001)                 1.200000000000000E+01,      /* K = 19 */
(PID.TID 0000.0001)                 1.100000000000000E+01,      /* K = 20 */
(PID.TID 0000.0001)     2 @  9.000000000000000E+00,             /* K = 21: 22 */
(PID.TID 0000.0001)                 8.000000000000000E+00,      /* K = 23 */
(PID.TID 0000.0001)                 7.000000000000000E+00,      /* K = 24 */
(PID.TID 0000.0001)     2 @  6.000000000000000E+00,             /* K = 25: 26 */
(PID.TID 0000.0001)     2 @  5.000000000000000E+00,             /* K = 27: 28 */
(PID.TID 0000.0001)     3 @  4.000000000000000E+00,             /* K = 29: 31 */
(PID.TID 0000.0001)     3 @  3.000000000000000E+00,             /* K = 32: 34 */
(PID.TID 0000.0001)     4 @  2.000000000000000E+00,             /* K = 35: 38 */
(PID.TID 0000.0001)    12 @  1.000000000000000E+00              /* K = 39: 50 */
(PID.TID 0000.0001)     ;
(PID.TID 0000.0001) sRef =   /* Reference salinity profile ( psu ) */
(PID.TID 0000.0001)    50 @  3.450000000000000E+01              /* K =  1: 50 */
(PID.TID 0000.0001)     ;
(PID.TID 0000.0001) useStrainTensionVisc= /* Use StrainTension Form of Viscous Operator */
(PID.TID 0000.0001)                   F
(PID.TID 0000.0001)     ;
(PID.TID 0000.0001) useVariableVisc = /* Use variable horizontal viscosity */
(PID.TID 0000.0001)                   T
(PID.TID 0000.0001)     ;
(PID.TID 0000.0001) useHarmonicVisc = /* Use harmonic horizontal viscosity */
(PID.TID 0000.0001)                   F
(PID.TID 0000.0001)     ;
(PID.TID 0000.0001) useBiharmonicVisc= /* Use biharmonic horiz.  viscosity */
(PID.TID 0000.0001)                   T
(PID.TID 0000.0001)     ;
(PID.TID 0000.0001) useSmag3D = /* Use isotropic 3-D Smagorinsky viscosity */
(PID.TID 0000.0001)                   F
(PID.TID 0000.0001)     ;
(PID.TID 0000.0001) viscAh  =   /* Lateral harmonic viscosity ( m^2/s ) */
(PID.TID 0000.0001)                 0.000000000000000E+00
(PID.TID 0000.0001)     ;
(PID.TID 0000.0001) viscAhMax = /* Maximum lateral harmonic viscosity ( m^2/s ) */
(PID.TID 0000.0001)                 1.000000000000000E+21
(PID.TID 0000.0001)     ;
(PID.TID 0000.0001) viscAhGrid = /* Grid dependent lateral harmonic viscosity ( non-dim. ) */
(PID.TID 0000.0001)                 0.000000000000000E+00
(PID.TID 0000.0001)     ;
(PID.TID 0000.0001) useFullLeith = /* Use Full Form of Leith Viscosity on/off flag*/
(PID.TID 0000.0001)                   F
(PID.TID 0000.0001)     ;
(PID.TID 0000.0001) useAreaViscLength = /* Use area for visc length instead of geom. mean*/
(PID.TID 0000.0001)                   T
(PID.TID 0000.0001)     ;
(PID.TID 0000.0001) viscC2leith = /* Leith harmonic visc. factor (on grad(vort),non-dim.) */
(PID.TID 0000.0001)                 0.000000000000000E+00
(PID.TID 0000.0001)     ;
(PID.TID 0000.0001) viscC2leithD = /* Leith harmonic viscosity factor (on grad(div),non-dim.)*/
(PID.TID 0000.0001)                 0.000000000000000E+00
(PID.TID 0000.0001)     ;
(PID.TID 0000.0001) viscC2smag = /* Smagorinsky harmonic viscosity factor (non-dim.) */
(PID.TID 0000.0001)                 0.000000000000000E+00
(PID.TID 0000.0001)     ;
(PID.TID 0000.0001) viscA4  =   /* Lateral biharmonic viscosity ( m^4/s ) */
(PID.TID 0000.0001)                 0.000000000000000E+00
(PID.TID 0000.0001)     ;
(PID.TID 0000.0001) viscA4Max = /* Maximum biharmonic viscosity ( m^2/s ) */
(PID.TID 0000.0001)                 1.000000000000000E+21
(PID.TID 0000.0001)     ;
(PID.TID 0000.0001) viscA4Grid = /* Grid dependent biharmonic viscosity ( non-dim. ) */
(PID.TID 0000.0001)                 0.000000000000000E+00
(PID.TID 0000.0001)     ;
(PID.TID 0000.0001) viscC4leith = /* Leith biharm viscosity factor (on grad(vort), non-dim.)*/
(PID.TID 0000.0001)                 2.150000000000000E+00
(PID.TID 0000.0001)     ;
(PID.TID 0000.0001) viscC4leithD = /* Leith biharm viscosity factor (on grad(div), non-dim.) */
(PID.TID 0000.0001)                 2.150000000000000E+00
(PID.TID 0000.0001)     ;
(PID.TID 0000.0001) viscC4Smag = /* Smagorinsky biharm viscosity factor (non-dim) */
(PID.TID 0000.0001)                 0.000000000000000E+00
(PID.TID 0000.0001)     ;
(PID.TID 0000.0001) no_slip_sides =  /* Viscous BCs: No-slip sides */
(PID.TID 0000.0001)                   T
(PID.TID 0000.0001)     ;
(PID.TID 0000.0001) sideDragFactor = /* side-drag scaling factor (non-dim) */
(PID.TID 0000.0001)                 2.000000000000000E+00
(PID.TID 0000.0001)     ;
(PID.TID 0000.0001) viscArNr = /* vertical profile of vertical viscosity ( m^2/s )*/
(PID.TID 0000.0001)    50 @  5.661400000000000E-04              /* K =  1: 50 */
(PID.TID 0000.0001)     ;
(PID.TID 0000.0001) no_slip_bottom =  /* Viscous BCs: No-slip bottom */
(PID.TID 0000.0001)                   T
(PID.TID 0000.0001)     ;
(PID.TID 0000.0001) bottomVisc_pCell = /* Partial-cell in bottom Visc. BC */
(PID.TID 0000.0001)                   F
(PID.TID 0000.0001)     ;
(PID.TID 0000.0001) bottomDragLinear = /* linear bottom-drag coefficient ( m/s ) */
(PID.TID 0000.0001)                 0.000000000000000E+00
(PID.TID 0000.0001)     ;
(PID.TID 0000.0001) bottomDragQuadratic = /* quadratic bottom-drag coefficient (-) */
(PID.TID 0000.0001)                 2.100000000000000E-03
(PID.TID 0000.0001)     ;
(PID.TID 0000.0001) selectBotDragQuadr = /* select quadratic bottom drag options */
(PID.TID 0000.0001)                       0
(PID.TID 0000.0001)     ;
(PID.TID 0000.0001) diffKhT =   /* Laplacian diffusion of heat laterally ( m^2/s ) */
(PID.TID 0000.0001)                 0.000000000000000E+00
(PID.TID 0000.0001)     ;
(PID.TID 0000.0001) diffK4T =   /* Biharmonic diffusion of heat laterally ( m^4/s ) */
(PID.TID 0000.0001)                 0.000000000000000E+00
(PID.TID 0000.0001)     ;
(PID.TID 0000.0001) diffKhS =   /* Laplacian diffusion of salt laterally ( m^2/s ) */
(PID.TID 0000.0001)                 0.000000000000000E+00
(PID.TID 0000.0001)     ;
(PID.TID 0000.0001) diffK4S =   /* Biharmonic diffusion of salt laterally ( m^4/s ) */
(PID.TID 0000.0001)                 0.000000000000000E+00
(PID.TID 0000.0001)     ;
(PID.TID 0000.0001) diffKrNrT = /* vertical profile of vertical diffusion of Temp ( m^2/s )*/
(PID.TID 0000.0001)    50 @  5.440000000000000E-07              /* K =  1: 50 */
(PID.TID 0000.0001)     ;
(PID.TID 0000.0001) diffKrNrS = /* vertical profile of vertical diffusion of Salt ( m^2/s )*/
(PID.TID 0000.0001)    50 @  5.440000000000000E-07              /* K =  1: 50 */
(PID.TID 0000.0001)     ;
(PID.TID 0000.0001) diffKrBL79surf = /* Surface diffusion for Bryan and Lewis 79 ( m^2/s ) */
(PID.TID 0000.0001)                 0.000000000000000E+00
(PID.TID 0000.0001)     ;
(PID.TID 0000.0001) diffKrBL79deep = /* Deep diffusion for Bryan and Lewis 1979 ( m^2/s ) */
(PID.TID 0000.0001)                 0.000000000000000E+00
(PID.TID 0000.0001)     ;
(PID.TID 0000.0001) diffKrBL79scl = /* Depth scale for Bryan and Lewis 1979 ( m ) */
(PID.TID 0000.0001)                 2.000000000000000E+02
(PID.TID 0000.0001)     ;
(PID.TID 0000.0001) diffKrBL79Ho = /* Turning depth for Bryan and Lewis 1979 ( m ) */
(PID.TID 0000.0001)                -2.000000000000000E+03
(PID.TID 0000.0001)     ;
(PID.TID 0000.0001) ivdc_kappa = /* Implicit Vertical Diffusivity for Convection ( m^2/s) */
(PID.TID 0000.0001)                 0.000000000000000E+00
(PID.TID 0000.0001)     ;
(PID.TID 0000.0001) hMixCriteria=  /* Criteria for mixed-layer diagnostic */
(PID.TID 0000.0001)                -8.000000000000000E-01
(PID.TID 0000.0001)     ;
(PID.TID 0000.0001) dRhoSmall =  /* Parameter for mixed-layer diagnostic */
(PID.TID 0000.0001)                 1.000000000000000E-06
(PID.TID 0000.0001)     ;
(PID.TID 0000.0001) hMixSmooth=  /* Smoothing parameter for mixed-layer diagnostic */
(PID.TID 0000.0001)                 0.000000000000000E+00
(PID.TID 0000.0001)     ;
(PID.TID 0000.0001) eosType =  /* Type of Equation of State */
(PID.TID 0000.0001)               'JMD95Z'
(PID.TID 0000.0001)     ;
(PID.TID 0000.0001) selectP_inEOS_Zc = /* select pressure to use in EOS (0,1,2,3) */
(PID.TID 0000.0001)                       0
(PID.TID 0000.0001)     0= -g*rhoConst*z ; 1= pRef (from tRef,sRef); 2= Hyd P ; 3= Hyd+NH P
(PID.TID 0000.0001)     ;
(PID.TID 0000.0001) HeatCapacity_Cp =  /* Specific heat capacity ( J/kg/K ) */
(PID.TID 0000.0001)                 3.994000000000000E+03
(PID.TID 0000.0001)     ;
(PID.TID 0000.0001) celsius2K = /* 0 degree Celsius converted to Kelvin ( K ) */
(PID.TID 0000.0001)                 2.731500000000000E+02
(PID.TID 0000.0001)     ;
(PID.TID 0000.0001) rhoConst  = /* Reference density (Boussinesq)  ( kg/m^3 ) */
(PID.TID 0000.0001)                 1.027500000000000E+03
(PID.TID 0000.0001)     ;
(PID.TID 0000.0001) rhoFacC = /* normalized Reference density @ cell-Center (-) */
(PID.TID 0000.0001)    50 @  1.000000000000000E+00              /* K =  1: 50 */
(PID.TID 0000.0001)     ;
(PID.TID 0000.0001) rhoFacF = /* normalized Reference density @ W-Interface (-) */
(PID.TID 0000.0001)    51 @  1.000000000000000E+00              /* K =  1: 51 */
(PID.TID 0000.0001)     ;
(PID.TID 0000.0001) rhoConstFresh = /* Fresh-water reference density ( kg/m^3 ) */
(PID.TID 0000.0001)                 9.998000000000000E+02
(PID.TID 0000.0001)     ;
(PID.TID 0000.0001) gravity =   /* Gravitational acceleration ( m/s^2 ) */
(PID.TID 0000.0001)                 9.810000000000000E+00
(PID.TID 0000.0001)     ;
(PID.TID 0000.0001) gBaro =   /* Barotropic gravity ( m/s^2 ) */
(PID.TID 0000.0001)                 9.810000000000000E+00
(PID.TID 0000.0001)     ;
(PID.TID 0000.0001) gravFacC = /* gravity factor (vs surf.) @ cell-Center (-) */
(PID.TID 0000.0001)    50 @  1.000000000000000E+00              /* K =  1: 50 */
(PID.TID 0000.0001)     ;
(PID.TID 0000.0001) gravFacF = /* gravity factor (vs surf.) @ W-Interface (-) */
(PID.TID 0000.0001)    51 @  1.000000000000000E+00              /* K =  1: 51 */
(PID.TID 0000.0001)     ;
(PID.TID 0000.0001) rotationPeriod =   /* Rotation Period ( s ) */
(PID.TID 0000.0001)                 8.616400000000000E+04
(PID.TID 0000.0001)     ;
(PID.TID 0000.0001) omega =   /* Angular velocity ( rad/s ) */
(PID.TID 0000.0001)                 7.292123516990375E-05
(PID.TID 0000.0001)     ;
(PID.TID 0000.0001) f0 =   /* Reference coriolis parameter ( 1/s ) */
(PID.TID 0000.0001)                 1.000000000000000E-04
(PID.TID 0000.0001)     ;
(PID.TID 0000.0001) beta =   /* Beta ( 1/(m.s) ) */
(PID.TID 0000.0001)                 9.999999999999999E-12
(PID.TID 0000.0001)     ;
(PID.TID 0000.0001) fPrime =   /* Second coriolis parameter ( 1/s ) */
(PID.TID 0000.0001)                 0.000000000000000E+00
(PID.TID 0000.0001)     ;
(PID.TID 0000.0001) rigidLid =   /* Rigid lid on/off flag */
(PID.TID 0000.0001)                   F
(PID.TID 0000.0001)     ;
(PID.TID 0000.0001) implicitFreeSurface =   /* Implicit free surface on/off flag */
(PID.TID 0000.0001)                   T
(PID.TID 0000.0001)     ;
(PID.TID 0000.0001) freeSurfFac =   /* Implicit free surface factor */
(PID.TID 0000.0001)                 1.000000000000000E+00
(PID.TID 0000.0001)     ;
(PID.TID 0000.0001) implicSurfPress =  /* Surface Pressure implicit factor (0-1)*/
(PID.TID 0000.0001)                 6.000000000000000E-01
(PID.TID 0000.0001)     ;
(PID.TID 0000.0001) implicDiv2DFlow =  /* Barot. Flow Div. implicit factor (0-1)*/
(PID.TID 0000.0001)                 6.000000000000000E-01
(PID.TID 0000.0001)     ;
(PID.TID 0000.0001) uniformLin_PhiSurf = /* use uniform Bo_surf on/off flag*/
(PID.TID 0000.0001)                   T
(PID.TID 0000.0001)     ;
(PID.TID 0000.0001) uniformFreeSurfLev = /* free-surface level-index is uniform */
(PID.TID 0000.0001)                   T
(PID.TID 0000.0001)     ;
(PID.TID 0000.0001) hFacMin =   /* minimum partial cell factor (hFac) */
(PID.TID 0000.0001)                 3.000000000000000E-01
(PID.TID 0000.0001)     ;
(PID.TID 0000.0001) hFacMinDr = /* minimum partial cell thickness ( m) */
(PID.TID 0000.0001)                 0.000000000000000E+00
(PID.TID 0000.0001)     ;
(PID.TID 0000.0001) exactConserv =  /* Exact Volume Conservation on/off flag*/
(PID.TID 0000.0001)                   T
(PID.TID 0000.0001)     ;
(PID.TID 0000.0001) linFSConserveTr = /* Tracer correction for Lin Free Surface on/off flag*/
(PID.TID 0000.0001)                   F
(PID.TID 0000.0001)     ;
(PID.TID 0000.0001) nonlinFreeSurf = /* Non-linear Free Surf. options (-1,0,1,2,3)*/
(PID.TID 0000.0001)                       0
(PID.TID 0000.0001)      -1,0= Off ; 1,2,3= On, 2=+rescale gU,gV, 3=+update cg2d solv.
(PID.TID 0000.0001)     ;
(PID.TID 0000.0001) hFacInf =   /* lower threshold for hFac (nonlinFreeSurf only)*/
(PID.TID 0000.0001)                 1.000000000000000E-01
(PID.TID 0000.0001)     ;
(PID.TID 0000.0001) hFacSup =   /* upper threshold for hFac (nonlinFreeSurf only)*/
(PID.TID 0000.0001)                 5.000000000000000E+00
(PID.TID 0000.0001)     ;
(PID.TID 0000.0001) select_rStar = /* r* Vertical coord. options (=0 r coord.; >0 uses r*)*/
(PID.TID 0000.0001)                       0
(PID.TID 0000.0001)     ;
(PID.TID 0000.0001) useRealFreshWaterFlux = /* Real Fresh Water Flux on/off flag*/
(PID.TID 0000.0001)                   T
(PID.TID 0000.0001)     ;
(PID.TID 0000.0001) temp_EvPrRn = /* Temp. of Evap/Prec/R (UNSET=use local T)(oC)*/
(PID.TID 0000.0001)                 0.000000000000000E+00
(PID.TID 0000.0001)     ;
(PID.TID 0000.0001) salt_EvPrRn = /* Salin. of Evap/Prec/R (UNSET=use local S)(psu)*/
(PID.TID 0000.0001)                 0.000000000000000E+00
(PID.TID 0000.0001)     ;
(PID.TID 0000.0001) selectAddFluid = /* option for mass source/sink of fluid (=0: off) */
(PID.TID 0000.0001)                       0
(PID.TID 0000.0001)     ;
(PID.TID 0000.0001) temp_addMass = /* Temp. of addMass array (UNSET=use local T)(oC)*/
(PID.TID 0000.0001)                 0.000000000000000E+00
(PID.TID 0000.0001)     ;
(PID.TID 0000.0001) salt_addMass = /* Salin. of addMass array (UNSET=use local S)(psu)*/
(PID.TID 0000.0001)                 0.000000000000000E+00
(PID.TID 0000.0001)     ;
(PID.TID 0000.0001) convertFW2Salt = /* convert F.W. Flux to Salt Flux (-1=use local S)(psu)*/
(PID.TID 0000.0001)                -1.000000000000000E+00
(PID.TID 0000.0001)     ;
(PID.TID 0000.0001) use3Dsolver = /* use 3-D pressure solver on/off flag */
(PID.TID 0000.0001)                   F
(PID.TID 0000.0001)     ;
(PID.TID 0000.0001) nonHydrostatic =  /* Non-Hydrostatic on/off flag */
(PID.TID 0000.0001)                   F
(PID.TID 0000.0001)     ;
(PID.TID 0000.0001) nh_Am2 = /* Non-Hydrostatic terms scaling factor */
(PID.TID 0000.0001)                 1.000000000000000E+00
(PID.TID 0000.0001)     ;
(PID.TID 0000.0001) implicitNHPress = /* Non-Hyd Pressure implicit factor (0-1)*/
(PID.TID 0000.0001)                 6.000000000000000E-01
(PID.TID 0000.0001)     ;
(PID.TID 0000.0001) selectNHfreeSurf = /* Non-Hyd (free-)Surface option */
(PID.TID 0000.0001)                       0
(PID.TID 0000.0001)     ;
(PID.TID 0000.0001) quasiHydrostatic = /* Quasi-Hydrostatic on/off flag */
(PID.TID 0000.0001)                   F
(PID.TID 0000.0001)     ;
(PID.TID 0000.0001) calc_wVelocity = /* vertical velocity calculation on/off flag */
(PID.TID 0000.0001)                   T
(PID.TID 0000.0001)     ;
(PID.TID 0000.0001) momStepping =  /* Momentum equation on/off flag */
(PID.TID 0000.0001)                   T
(PID.TID 0000.0001)     ;
(PID.TID 0000.0001) vectorInvariantMomentum= /* Vector-Invariant Momentum on/off */
(PID.TID 0000.0001)                   T
(PID.TID 0000.0001)     ;
(PID.TID 0000.0001) momAdvection =  /* Momentum advection on/off flag */
(PID.TID 0000.0001)                   T
(PID.TID 0000.0001)     ;
(PID.TID 0000.0001) momViscosity =  /* Momentum viscosity on/off flag */
(PID.TID 0000.0001)                   T
(PID.TID 0000.0001)     ;
(PID.TID 0000.0001) momImplVertAdv= /* Momentum implicit vert. advection on/off*/
(PID.TID 0000.0001)                   F
(PID.TID 0000.0001)     ;
(PID.TID 0000.0001) implicitViscosity = /* Implicit viscosity on/off flag */
(PID.TID 0000.0001)                   T
(PID.TID 0000.0001)     ;
(PID.TID 0000.0001) selectImplicitDrag= /* Implicit bot Drag options (0,1,2)*/
(PID.TID 0000.0001)                       0
(PID.TID 0000.0001)     0= Expl. ; 1= Impl. on provis. Vel ; 2= Fully Impl (with surf.P)
(PID.TID 0000.0001)     ;
(PID.TID 0000.0001) metricTerms =  /* metric-Terms on/off flag */
(PID.TID 0000.0001)                   F
(PID.TID 0000.0001)     ;
(PID.TID 0000.0001) useNHMTerms = /* Non-Hydrostatic Metric-Terms on/off */
(PID.TID 0000.0001)                   F
(PID.TID 0000.0001)     ;
(PID.TID 0000.0001) selectCoriMap = /* Coriolis Map options (0,1,2,3)*/
(PID.TID 0000.0001)                       2
(PID.TID 0000.0001)     0= f-Plane ; 1= Beta-Plane ; 2= Spherical ; 3= read from file
(PID.TID 0000.0001)     ;
(PID.TID 0000.0001) use3dCoriolis = /* 3-D Coriolis on/off flag */
(PID.TID 0000.0001)                   F
(PID.TID 0000.0001)     ;
(PID.TID 0000.0001) useCoriolis =  /* Coriolis on/off flag */
(PID.TID 0000.0001)                   T
(PID.TID 0000.0001)     ;
(PID.TID 0000.0001) useCDscheme =  /* CD scheme on/off flag */
(PID.TID 0000.0001)                   F
(PID.TID 0000.0001)     ;
(PID.TID 0000.0001) useEnergyConservingCoriolis= /* Flx-Form Coriolis scheme flag */
(PID.TID 0000.0001)                   F
(PID.TID 0000.0001)     ;
(PID.TID 0000.0001) useJamartWetPoints= /* Coriolis WetPoints method flag */
(PID.TID 0000.0001)                   F
(PID.TID 0000.0001)     ;
(PID.TID 0000.0001) useJamartMomAdv= /* V.I Non-linear terms Jamart flag */
(PID.TID 0000.0001)                   F
(PID.TID 0000.0001)     ;
(PID.TID 0000.0001) useAbsVorticity= /* V.I Works with f+zeta in Coriolis */
(PID.TID 0000.0001)                   F
(PID.TID 0000.0001)     ;
(PID.TID 0000.0001) selectVortScheme= /* V.I Scheme selector for Vorticity-Term */
(PID.TID 0000.0001)                       0
(PID.TID 0000.0001)    = 0 : enstrophy (Shallow-Water Eq.) conserving scheme by Sadourny, JAS 75
(PID.TID 0000.0001)    = 1 : same as 0 with modified hFac
(PID.TID 0000.0001)    = 2 : energy conserving scheme (used by Sadourny in JAS 75 paper)
(PID.TID 0000.0001)    = 3 : energy (general) and enstrophy (2D, nonDiv.) conserving scheme
(PID.TID 0000.0001)          from Sadourny (Burridge & Haseler, ECMWF Rep.4, 1977)
(PID.TID 0000.0001)     ;
(PID.TID 0000.0001) upwindVorticity= /* V.I Upwind bias vorticity flag */
(PID.TID 0000.0001)                   F
(PID.TID 0000.0001)     ;
(PID.TID 0000.0001) highOrderVorticity= /* V.I High order vort. advect. flag */
(PID.TID 0000.0001)                   T
(PID.TID 0000.0001)     ;
(PID.TID 0000.0001) upwindShear= /* V.I Upwind vertical Shear advection flag */
(PID.TID 0000.0001)                   F
(PID.TID 0000.0001)     ;
(PID.TID 0000.0001) selectKEscheme= /* V.I Kinetic Energy scheme selector */
(PID.TID 0000.0001)                       0
(PID.TID 0000.0001)     ;
(PID.TID 0000.0001) momForcing =  /* Momentum forcing on/off flag */
(PID.TID 0000.0001)                   T
(PID.TID 0000.0001)     ;
(PID.TID 0000.0001) momPressureForcing =  /* Momentum pressure term on/off flag */
(PID.TID 0000.0001)                   T
(PID.TID 0000.0001)     ;
(PID.TID 0000.0001) implicitIntGravWave= /* Implicit Internal Gravity Wave flag */
(PID.TID 0000.0001)                   F
(PID.TID 0000.0001)     ;
(PID.TID 0000.0001) staggerTimeStep =    /* Stagger time stepping on/off flag */
(PID.TID 0000.0001)                   T
(PID.TID 0000.0001)     ;
(PID.TID 0000.0001) doResetHFactors = /* reset thickness factors @ each time-step */
(PID.TID 0000.0001)                   F
(PID.TID 0000.0001)     ;
(PID.TID 0000.0001) multiDimAdvection =  /* enable/disable Multi-Dim Advection */
(PID.TID 0000.0001)                   T
(PID.TID 0000.0001)     ;
(PID.TID 0000.0001) useMultiDimAdvec =   /* Multi-Dim Advection is/is-not used */
(PID.TID 0000.0001)                   T
(PID.TID 0000.0001)     ;
(PID.TID 0000.0001) implicitDiffusion = /* Implicit Diffusion on/off flag */
(PID.TID 0000.0001)                   T
(PID.TID 0000.0001)     ;
(PID.TID 0000.0001) tempStepping =  /* Temperature equation on/off flag */
(PID.TID 0000.0001)                   T
(PID.TID 0000.0001)     ;
(PID.TID 0000.0001) tempAdvection = /* Temperature advection on/off flag */
(PID.TID 0000.0001)                   T
(PID.TID 0000.0001)     ;
(PID.TID 0000.0001) tempImplVertAdv = /* Temp. implicit vert. advection on/off */
(PID.TID 0000.0001)                   F
(PID.TID 0000.0001)     ;
(PID.TID 0000.0001) tempForcing  =  /* Temperature forcing on/off flag */
(PID.TID 0000.0001)                   T
(PID.TID 0000.0001)     ;
(PID.TID 0000.0001) doThetaClimRelax = /* apply SST relaxation on/off flag */
(PID.TID 0000.0001)                   F
(PID.TID 0000.0001)     ;
(PID.TID 0000.0001) tempIsActiveTr = /* Temp. is a dynamically Active Tracer */
(PID.TID 0000.0001)                   T
(PID.TID 0000.0001)     ;
(PID.TID 0000.0001) saltStepping =  /* Salinity equation on/off flag */
(PID.TID 0000.0001)                   T
(PID.TID 0000.0001)     ;
(PID.TID 0000.0001) saltAdvection = /* Salinity advection on/off flag */
(PID.TID 0000.0001)                   T
(PID.TID 0000.0001)     ;
(PID.TID 0000.0001) saltImplVertAdv = /* Sali. implicit vert. advection on/off */
(PID.TID 0000.0001)                   F
(PID.TID 0000.0001)     ;
(PID.TID 0000.0001) saltForcing  =  /* Salinity forcing on/off flag */
(PID.TID 0000.0001)                   T
(PID.TID 0000.0001)     ;
(PID.TID 0000.0001) doSaltClimRelax = /* apply SSS relaxation on/off flag */
(PID.TID 0000.0001)                   F
(PID.TID 0000.0001)     ;
(PID.TID 0000.0001) saltIsActiveTr = /* Salt  is a dynamically Active Tracer */
(PID.TID 0000.0001)                   T
(PID.TID 0000.0001)     ;
(PID.TID 0000.0001)  readBinaryPrec = /* Precision used for reading binary files */
(PID.TID 0000.0001)                      32
(PID.TID 0000.0001)     ;
(PID.TID 0000.0001) writeBinaryPrec = /* Precision used for writing binary files */
(PID.TID 0000.0001)                      32
(PID.TID 0000.0001)     ;
(PID.TID 0000.0001)  rwSuffixType =   /* select format of mds file suffix */
(PID.TID 0000.0001)                       0
(PID.TID 0000.0001)    = 0 : myIter (I10.10) ;   = 1 : 100*myTime (100th sec) ;
(PID.TID 0000.0001)    = 2 : myTime (seconds);   = 3 : myTime/360 (10th of hr);
(PID.TID 0000.0001)    = 4 : myTime/3600 (hours)
(PID.TID 0000.0001)     ;
(PID.TID 0000.0001)  globalFiles = /* write "global" (=not per tile) files */
(PID.TID 0000.0001)                   T
(PID.TID 0000.0001)     ;
(PID.TID 0000.0001)  useSingleCpuIO = /* only master MPI process does I/O */
(PID.TID 0000.0001)                   F
(PID.TID 0000.0001)     ;
(PID.TID 0000.0001)  useSingleCpuInput = /* only master process reads input */
(PID.TID 0000.0001)                   T
(PID.TID 0000.0001)     ;
(PID.TID 0000.0001) /* debLev[*]  : level of debug & auxiliary message printing */
(PID.TID 0000.0001) debLevZero =  0 ; /* level of disabled aux. msg printing */
(PID.TID 0000.0001)    debLevA =  1 ; /* level of minimum  aux. msg printing */
(PID.TID 0000.0001)    debLevB =  2 ; /* level of low aux. print (report read-file opening)*/
(PID.TID 0000.0001)    debLevC =  3 ; /* level of moderate debug prt (most pkgs debug msg) */
(PID.TID 0000.0001)    debLevD =  4 ; /* level of enhanced debug prt (add DEBUG_STATS prt) */
(PID.TID 0000.0001)    debLevE =  5 ; /* level of extensive debug printing */
(PID.TID 0000.0001) debugLevel =  /* select debug printing level */
(PID.TID 0000.0001)                       2
(PID.TID 0000.0001)     ;
(PID.TID 0000.0001)  plotLevel =  /* select PLOT_FIELD printing level */
(PID.TID 0000.0001)                       2
(PID.TID 0000.0001)     ;
(PID.TID 0000.0001) //
(PID.TID 0000.0001) // Elliptic solver(s) paramters ( PARM02 in namelist )
(PID.TID 0000.0001) //
(PID.TID 0000.0001) cg2dMaxIters =   /* Upper limit on 2d con. grad iterations  */
(PID.TID 0000.0001)                     100
(PID.TID 0000.0001)     ;
(PID.TID 0000.0001) cg2dChkResFreq =   /* 2d con. grad convergence test frequency */
(PID.TID 0000.0001)                       1
(PID.TID 0000.0001)     ;
(PID.TID 0000.0001) cg2dUseMinResSol= /* use cg2d last-iter(=0) / min-resid.(=1) solution */
(PID.TID 0000.0001)                       0
(PID.TID 0000.0001)     ;
(PID.TID 0000.0001) cg2dTargetResidual =   /* 2d con. grad target residual  */
(PID.TID 0000.0001)                 1.000000000000000E-05
(PID.TID 0000.0001)     ;
(PID.TID 0000.0001) cg2dTargetResWunit =   /* CG2d target residual [W units] */
(PID.TID 0000.0001)                -1.000000000000000E+00
(PID.TID 0000.0001)     ;
(PID.TID 0000.0001) cg2dPreCondFreq =   /* Freq. for updating cg2d preconditioner */
(PID.TID 0000.0001)                       1
(PID.TID 0000.0001)     ;
(PID.TID 0000.0001) useSRCGSolver =  /* use single reduction CG solver(s) */
(PID.TID 0000.0001)                   F
(PID.TID 0000.0001)     ;
(PID.TID 0000.0001) printResidualFreq = /* Freq. for printing CG residual */
(PID.TID 0000.0001)                       0
(PID.TID 0000.0001)     ;
(PID.TID 0000.0001) //
(PID.TID 0000.0001) // Time stepping paramters ( PARM03 in namelist )
(PID.TID 0000.0001) //
(PID.TID 0000.0001) deltaTMom =   /* Momentum equation timestep ( s ) */
(PID.TID 0000.0001)                 9.000000000000000E+02
(PID.TID 0000.0001)     ;
(PID.TID 0000.0001) deltaTFreeSurf = /* FreeSurface equation timestep ( s ) */
(PID.TID 0000.0001)                 9.000000000000000E+02
(PID.TID 0000.0001)     ;
(PID.TID 0000.0001) dTtracerLev =  /* Tracer equation timestep ( s ) */
(PID.TID 0000.0001)    50 @  9.000000000000000E+02              /* K =  1: 50 */
(PID.TID 0000.0001)     ;
(PID.TID 0000.0001) deltaTClock  =   /* Model clock timestep ( s ) */
(PID.TID 0000.0001)                 9.000000000000000E+02
(PID.TID 0000.0001)     ;
(PID.TID 0000.0001) cAdjFreq =   /* Convective adjustment interval ( s ) */
(PID.TID 0000.0001)                 0.000000000000000E+00
(PID.TID 0000.0001)     ;
(PID.TID 0000.0001) momForcingOutAB = /* =1: take Momentum Forcing out of Adams-Bash. stepping */
(PID.TID 0000.0001)                       1
(PID.TID 0000.0001)     ;
(PID.TID 0000.0001) tracForcingOutAB = /* =1: take T,S,pTr Forcing out of Adams-Bash. stepping */
(PID.TID 0000.0001)                       1
(PID.TID 0000.0001)     ;
(PID.TID 0000.0001) momDissip_In_AB = /* put Dissipation Tendency in Adams-Bash. stepping */
(PID.TID 0000.0001)                   F
(PID.TID 0000.0001)     ;
(PID.TID 0000.0001) doAB_onGtGs = /* apply AB on Tendencies (rather than on T,S)*/
(PID.TID 0000.0001)                   T
(PID.TID 0000.0001)     ;
(PID.TID 0000.0001) abEps =   /* Adams-Bashforth-2 stabilizing weight */
(PID.TID 0000.0001)                 1.000000000000000E-01
(PID.TID 0000.0001)     ;
(PID.TID 0000.0001) applyExchUV_early = /* Apply EXCH to U,V earlier in time-step */
(PID.TID 0000.0001)                   F
(PID.TID 0000.0001)     ;
(PID.TID 0000.0001) pickupStrictlyMatch= /* stop if pickup do not strictly match */
(PID.TID 0000.0001)                   T
(PID.TID 0000.0001)     ;
(PID.TID 0000.0001) nIter0   =   /* Run starting timestep number */
(PID.TID 0000.0001)                       1
(PID.TID 0000.0001)     ;
(PID.TID 0000.0001) nTimeSteps = /* Number of timesteps */
(PID.TID 0000.0001)                  175295
(PID.TID 0000.0001)     ;
(PID.TID 0000.0001) nEndIter =   /* Run ending timestep number */
(PID.TID 0000.0001)                  175296
(PID.TID 0000.0001)     ;
(PID.TID 0000.0001) baseTime =   /* Model base time ( s ) */
(PID.TID 0000.0001)                 0.000000000000000E+00
(PID.TID 0000.0001)     ;
(PID.TID 0000.0001) startTime =  /* Run start time ( s ) */
(PID.TID 0000.0001)                 9.000000000000000E+02
(PID.TID 0000.0001)     ;
(PID.TID 0000.0001) endTime  =   /* Integration ending time ( s ) */
(PID.TID 0000.0001)                 1.577664000000000E+08
(PID.TID 0000.0001)     ;
(PID.TID 0000.0001) pChkPtFreq = /* Permanent restart/pickup file interval ( s ) */
(PID.TID 0000.0001)                 0.000000000000000E+00
(PID.TID 0000.0001)     ;
(PID.TID 0000.0001) chkPtFreq  = /* Rolling restart/pickup file interval ( s ) */
(PID.TID 0000.0001)                 4.320000000000000E+04
(PID.TID 0000.0001)     ;
(PID.TID 0000.0001) pickup_write_mdsio =   /* Model IO flag. */
(PID.TID 0000.0001)                   T
(PID.TID 0000.0001)     ;
(PID.TID 0000.0001) pickup_read_mdsio =   /* Model IO flag. */
(PID.TID 0000.0001)                   T
(PID.TID 0000.0001)     ;
(PID.TID 0000.0001) writePickupAtEnd =   /* Model IO flag. */
(PID.TID 0000.0001)                   T
(PID.TID 0000.0001)     ;
(PID.TID 0000.0001) dumpFreq =   /* Model state write out interval ( s ). */
(PID.TID 0000.0001)                 3.600000000000000E+03
(PID.TID 0000.0001)     ;
(PID.TID 0000.0001) dumpInitAndLast= /* write out Initial & Last iter. model state */
(PID.TID 0000.0001)                   F
(PID.TID 0000.0001)     ;
(PID.TID 0000.0001) snapshot_mdsio =   /* Model IO flag. */
(PID.TID 0000.0001)                   T
(PID.TID 0000.0001)     ;
(PID.TID 0000.0001) monitorFreq =   /* Monitor output interval ( s ). */
(PID.TID 0000.0001)                 7.200000000000000E+03
(PID.TID 0000.0001)     ;
(PID.TID 0000.0001) monitorSelect = /* select group of variables to monitor */
(PID.TID 0000.0001)                       3
(PID.TID 0000.0001)     ;
(PID.TID 0000.0001) monitor_stdio =   /* Model IO flag. */
(PID.TID 0000.0001)                   T
(PID.TID 0000.0001)     ;
(PID.TID 0000.0001) externForcingPeriod =   /* forcing period (s) */
(PID.TID 0000.0001)                 0.000000000000000E+00
(PID.TID 0000.0001)     ;
(PID.TID 0000.0001) externForcingCycle =   /* period of the cyle (s). */
(PID.TID 0000.0001)                 0.000000000000000E+00
(PID.TID 0000.0001)     ;
(PID.TID 0000.0001) tauThetaClimRelax =   /* relaxation time scale (s) */
(PID.TID 0000.0001)                 0.000000000000000E+00
(PID.TID 0000.0001)     ;
(PID.TID 0000.0001) tauSaltClimRelax =   /* relaxation time scale (s) */
(PID.TID 0000.0001)                 0.000000000000000E+00
(PID.TID 0000.0001)     ;
(PID.TID 0000.0001) latBandClimRelax =   /* max. Lat. where relaxation */
(PID.TID 0000.0001)                 1.800000000000000E+02
(PID.TID 0000.0001)     ;
(PID.TID 0000.0001) //
(PID.TID 0000.0001) // Gridding paramters ( PARM04 in namelist )
(PID.TID 0000.0001) //
(PID.TID 0000.0001) usingCartesianGrid = /* Cartesian coordinates flag ( True/False ) */
(PID.TID 0000.0001)                   F
(PID.TID 0000.0001)     ;
(PID.TID 0000.0001) usingCylindricalGrid = /* Cylindrical coordinates flag ( True/False ) */
(PID.TID 0000.0001)                   F
(PID.TID 0000.0001)     ;
(PID.TID 0000.0001) usingSphericalPolarGrid = /* Spherical coordinates flag ( True/False ) */
(PID.TID 0000.0001)                   F
(PID.TID 0000.0001)     ;
(PID.TID 0000.0001) usingCurvilinearGrid = /* Curvilinear coordinates flag ( True/False ) */
(PID.TID 0000.0001)                   T
(PID.TID 0000.0001)     ;
(PID.TID 0000.0001) useMin4hFacEdges = /* set hFacW,S as minimum of adjacent hFacC factor */
(PID.TID 0000.0001)                   F
(PID.TID 0000.0001)     ;
(PID.TID 0000.0001) selectSigmaCoord = /* Hybrid-Sigma Vert. Coordinate option */
(PID.TID 0000.0001)                       0
(PID.TID 0000.0001)     ;
(PID.TID 0000.0001) rSigmaBnd = /* r/sigma transition ( units of r ==  m ) */
(PID.TID 0000.0001)                 1.234567000000000E+05
(PID.TID 0000.0001)     ;
(PID.TID 0000.0001) rkSign =   /* index orientation relative to vertical coordinate */
(PID.TID 0000.0001)                -1.000000000000000E+00
(PID.TID 0000.0001)     ;
(PID.TID 0000.0001) gravitySign = /* gravity orientation relative to vertical coordinate */
(PID.TID 0000.0001)                -1.000000000000000E+00
(PID.TID 0000.0001)     ;
(PID.TID 0000.0001) seaLev_Z =  /* reference height of sea-level [m] */
(PID.TID 0000.0001)                 0.000000000000000E+00
(PID.TID 0000.0001)     ;
(PID.TID 0000.0001) top_Pres =  /* reference pressure at the top [Pa] */
(PID.TID 0000.0001)                 0.000000000000000E+00
(PID.TID 0000.0001)     ;
(PID.TID 0000.0001) mass2rUnit = /* convert mass per unit area [kg/m2] to r-units [m] */
(PID.TID 0000.0001)                 9.732360097323601E-04
(PID.TID 0000.0001)     ;
(PID.TID 0000.0001) rUnit2mass = /* convert r-units [m] to mass per unit area [kg/m2] */
(PID.TID 0000.0001)                 1.027500000000000E+03
(PID.TID 0000.0001)     ;
(PID.TID 0000.0001) drC =   /* C spacing ( units of r ) */
(PID.TID 0000.0001)                 5.000000000000000E+00,      /* K =  1 */
(PID.TID 0000.0001)     6 @  1.000000000000000E+01,             /* K =  2:  7 */
(PID.TID 0000.0001)                 1.000500000000000E+01,      /* K =  8 */
(PID.TID 0000.0001)                 1.002000000000000E+01,      /* K =  9 */
(PID.TID 0000.0001)                 1.007000000000000E+01,      /* K = 10 */
(PID.TID 0000.0001)                 1.021500000000000E+01,      /* K = 11 */
(PID.TID 0000.0001)                 1.056000000000000E+01,      /* K = 12 */
(PID.TID 0000.0001)                 1.128000000000000E+01,      /* K = 13 */
(PID.TID 0000.0001)                 1.259000000000000E+01,      /* K = 14 */
(PID.TID 0000.0001)                 1.473000000000000E+01,      /* K = 15 */
(PID.TID 0000.0001)                 1.793000000000000E+01,      /* K = 16 */
(PID.TID 0000.0001)                 2.233500000000000E+01,      /* K = 17 */
(PID.TID 0000.0001)                 2.797500000000000E+01,      /* K = 18 */
(PID.TID 0000.0001)                 3.476000000000001E+01,      /* K = 19 */
(PID.TID 0000.0001)                 4.246000000000000E+01,      /* K = 20 */
(PID.TID 0000.0001)                 5.075000000000000E+01,      /* K = 21 */
(PID.TID 0000.0001)                 5.925000000000000E+01,      /* K = 22 */
(PID.TID 0000.0001)                 6.753999999999999E+01,      /* K = 23 */
(PID.TID 0000.0001)                 7.524000000000001E+01,      /* K = 24 */
(PID.TID 0000.0001)                 8.202500000000001E+01,      /* K = 25 */
(PID.TID 0000.0001)                 8.766500000000001E+01,      /* K = 26 */
(PID.TID 0000.0001)                 9.206999999999999E+01,      /* K = 27 */
(PID.TID 0000.0001)                 9.527000000000000E+01,      /* K = 28 */
(PID.TID 0000.0001)                 9.741499999999999E+01,      /* K = 29 */
(PID.TID 0000.0001)                 9.875000000000000E+01,      /* K = 30 */
(PID.TID 0000.0001)                 9.963000000000000E+01,      /* K = 31 */
(PID.TID 0000.0001)                 1.006700000000000E+02,      /* K = 32 */
(PID.TID 0000.0001)                 1.029450000000000E+02,      /* K = 33 */
(PID.TID 0000.0001)                 1.079450000000000E+02,      /* K = 34 */
(PID.TID 0000.0001)                 1.170800000000000E+02,      /* K = 35 */
(PID.TID 0000.0001)                 1.309600000000000E+02,      /* K = 36 */
(PID.TID 0000.0001)                 1.490150000000000E+02,      /* K = 37 */
(PID.TID 0000.0001)                 1.698850000000000E+02,      /* K = 38 */
(PID.TID 0000.0001)                 1.921900000000000E+02,      /* K = 39 */
(PID.TID 0000.0001)                 2.150250000000000E+02,      /* K = 40 */
(PID.TID 0000.0001)                 2.380000000000000E+02,      /* K = 41 */
(PID.TID 0000.0001)                 2.610000000000000E+02,      /* K = 42 */
(PID.TID 0000.0001)                 2.840000000000000E+02,      /* K = 43 */
(PID.TID 0000.0001)                 3.070000000000000E+02,      /* K = 44 */
(PID.TID 0000.0001)                 3.300000000000000E+02,      /* K = 45 */
(PID.TID 0000.0001)                 3.530000000000000E+02,      /* K = 46 */
(PID.TID 0000.0001)                 3.760000000000000E+02,      /* K = 47 */
(PID.TID 0000.0001)                 3.990000000000000E+02,      /* K = 48 */
(PID.TID 0000.0001)                 4.220000000000000E+02,      /* K = 49 */
(PID.TID 0000.0001)                 4.450000000000000E+02,      /* K = 50 */
(PID.TID 0000.0001)                 2.282500000000000E+02       /* K = 51 */
(PID.TID 0000.0001)     ;
(PID.TID 0000.0001) drF =   /* W spacing ( units of r ) */
(PID.TID 0000.0001)     7 @  1.000000000000000E+01,             /* K =  1:  7 */
(PID.TID 0000.0001)                 1.001000000000000E+01,      /* K =  8 */
(PID.TID 0000.0001)                 1.003000000000000E+01,      /* K =  9 */
(PID.TID 0000.0001)                 1.011000000000000E+01,      /* K = 10 */
(PID.TID 0000.0001)                 1.032000000000000E+01,      /* K = 11 */
(PID.TID 0000.0001)                 1.080000000000000E+01,      /* K = 12 */
(PID.TID 0000.0001)                 1.176000000000000E+01,      /* K = 13 */
(PID.TID 0000.0001)                 1.342000000000000E+01,      /* K = 14 */
(PID.TID 0000.0001)                 1.604000000000000E+01,      /* K = 15 */
(PID.TID 0000.0001)                 1.982000000000000E+01,      /* K = 16 */
(PID.TID 0000.0001)                 2.485000000000000E+01,      /* K = 17 */
(PID.TID 0000.0001)                 3.110000000000000E+01,      /* K = 18 */
(PID.TID 0000.0001)                 3.842000000000000E+01,      /* K = 19 */
(PID.TID 0000.0001)                 4.650000000000000E+01,      /* K = 20 */
(PID.TID 0000.0001)                 5.500000000000000E+01,      /* K = 21 */
(PID.TID 0000.0001)                 6.350000000000000E+01,      /* K = 22 */
(PID.TID 0000.0001)                 7.158000000000000E+01,      /* K = 23 */
(PID.TID 0000.0001)                 7.890000000000001E+01,      /* K = 24 */
(PID.TID 0000.0001)                 8.515000000000001E+01,      /* K = 25 */
(PID.TID 0000.0001)                 9.018000000000001E+01,      /* K = 26 */
(PID.TID 0000.0001)                 9.395999999999999E+01,      /* K = 27 */
(PID.TID 0000.0001)                 9.658000000000000E+01,      /* K = 28 */
(PID.TID 0000.0001)                 9.825000000000000E+01,      /* K = 29 */
(PID.TID 0000.0001)                 9.925000000000000E+01,      /* K = 30 */
(PID.TID 0000.0001)                 1.000100000000000E+02,      /* K = 31 */
(PID.TID 0000.0001)                 1.013300000000000E+02,      /* K = 32 */
(PID.TID 0000.0001)                 1.045600000000000E+02,      /* K = 33 */
(PID.TID 0000.0001)                 1.113300000000000E+02,      /* K = 34 */
(PID.TID 0000.0001)                 1.228300000000000E+02,      /* K = 35 */
(PID.TID 0000.0001)                 1.390900000000000E+02,      /* K = 36 */
(PID.TID 0000.0001)                 1.589400000000000E+02,      /* K = 37 */
(PID.TID 0000.0001)                 1.808300000000000E+02,      /* K = 38 */
(PID.TID 0000.0001)                 2.035500000000000E+02,      /* K = 39 */
(PID.TID 0000.0001)                 2.265000000000000E+02,      /* K = 40 */
(PID.TID 0000.0001)                 2.495000000000000E+02,      /* K = 41 */
(PID.TID 0000.0001)                 2.725000000000000E+02,      /* K = 42 */
(PID.TID 0000.0001)                 2.955000000000000E+02,      /* K = 43 */
(PID.TID 0000.0001)                 3.185000000000000E+02,      /* K = 44 */
(PID.TID 0000.0001)                 3.415000000000000E+02,      /* K = 45 */
(PID.TID 0000.0001)                 3.645000000000000E+02,      /* K = 46 */
(PID.TID 0000.0001)                 3.875000000000000E+02,      /* K = 47 */
(PID.TID 0000.0001)                 4.105000000000000E+02,      /* K = 48 */
(PID.TID 0000.0001)                 4.335000000000000E+02,      /* K = 49 */
(PID.TID 0000.0001)                 4.565000000000000E+02       /* K = 50 */
(PID.TID 0000.0001)     ;
(PID.TID 0000.0001) radius_fromHorizGrid = /* sphere Radius of input horiz. grid */
(PID.TID 0000.0001)                 6.370000000000000E+06
(PID.TID 0000.0001)     ;
(PID.TID 0000.0001) rSphere =  /* Radius ( ignored - cartesian, m - spherical ) */
(PID.TID 0000.0001)                 6.370000000000000E+06
(PID.TID 0000.0001)     ;
(PID.TID 0000.0001) deepAtmosphere = /* Deep/Shallow Atmosphere flag (True/False) */
(PID.TID 0000.0001)                   F
(PID.TID 0000.0001)     ;
(PID.TID 0000.0001) xC =  /* xC(:,1,:,1) : P-point X coord ( deg. or m if cartesian) */
(PID.TID 0000.0001)                -4.081468768806280E+01,      /* I =  1 */
(PID.TID 0000.0001)                -3.957104986057077E+01,      /* I =  2 */
(PID.TID 0000.0001)                -3.832217028656162E+01,      /* I =  3 */
(PID.TID 0000.0001)                -3.706844413107324E+01,      /* I =  4 */
(PID.TID 0000.0001)                -3.581028225779612E+01,      /* I =  5 */
(PID.TID 0000.0001)                -3.454811012006861E+01,      /* I =  6 */
(PID.TID 0000.0001)                -3.328236654497336E+01,      /* I =  7 */
(PID.TID 0000.0001)                -3.201350241727823E+01,      /* I =  8 */
(PID.TID 0000.0001)                -3.074197927113779E+01,      /* I =  9 */
(PID.TID 0000.0001)                -2.946826779826338E+01,      /* I = 10 */
(PID.TID 0000.0001)                -2.819284628214859E+01,      /* I = 11 */
(PID.TID 0000.0001)                -2.691619896217756E+01,      /* I = 12 */
(PID.TID 0000.0001)                -2.563881425705264E+01,      /* I = 13 */
(PID.TID 0000.0001)                -2.436118574294736E+01,      /* I = 14 */
(PID.TID 0000.0001)                -2.308380103782244E+01,      /* I = 15 */
(PID.TID 0000.0001)                -2.180715371785141E+01,      /* I = 16 */
(PID.TID 0000.0001)                -2.053173220173662E+01,      /* I = 17 */
(PID.TID 0000.0001)                -1.925802072886221E+01,      /* I = 18 */
(PID.TID 0000.0001)                -1.798649758272177E+01,      /* I = 19 */
(PID.TID 0000.0001)                -1.671763345502664E+01,      /* I = 20 */
(PID.TID 0000.0001)                -1.545188987993139E+01,      /* I = 21 */
(PID.TID 0000.0001)                -1.418971774220388E+01,      /* I = 22 */
(PID.TID 0000.0001)                -1.293155586892676E+01,      /* I = 23 */
(PID.TID 0000.0001)                -1.167782971343838E+01,      /* I = 24 */
(PID.TID 0000.0001)                -1.042895013942923E+01,      /* I = 25 */
(PID.TID 0000.0001)                -9.185312311937196E+00,      /* I = 26 */
(PID.TID 0000.0001)                -7.947294700425999E+00,      /* I = 27 */
(PID.TID 0000.0001)                -6.715258197621779E+00,      /* I = 28 */
(PID.TID 0000.0001)                -5.489545357070952E+00,      /* I = 29 */
(PID.TID 0000.0001)                -4.270479749729759E+00       /* I = 30 */
(PID.TID 0000.0001)     ;
(PID.TID 0000.0001) yC =  /* yC(1,:,1,:) : P-point Y coord ( deg. or m if cartesian) */
(PID.TID 0000.0001)                -8.146222940368236E+01,      /* J =  1 */
(PID.TID 0000.0001)                -8.113083815286421E+01,      /* J =  2 */
(PID.TID 0000.0001)                -8.079504828233755E+01,      /* J =  3 */
(PID.TID 0000.0001)                -8.045491317322768E+01,      /* J =  4 */
(PID.TID 0000.0001)                -8.011048280590389E+01,      /* J =  5 */
(PID.TID 0000.0001)                -7.976180430515704E+01,      /* J =  6 */
(PID.TID 0000.0001)                -7.940892240526760E+01,      /* J =  7 */
(PID.TID 0000.0001)                -7.905187984845006E+01,      /* J =  8 */
(PID.TID 0000.0001)                -7.869071772754813E+01,      /* J =  9 */
(PID.TID 0000.0001)                -7.832547578199167E+01,      /* J = 10 */
(PID.TID 0000.0001)                -7.795619265432416E+01,      /* J = 11 */
(PID.TID 0000.0001)                -7.758290611340497E+01,      /* J = 12 */
(PID.TID 0000.0001)                -7.720565324926896E+01,      /* J = 13 */
(PID.TID 0000.0001)                -7.682447064385434E+01,      /* J = 14 */
(PID.TID 0000.0001)                -7.643939452107085E+01,      /* J = 15 */
(PID.TID 0000.0001)                -7.605046087901695E+01,      /* J = 16 */
(PID.TID 0000.0001)                -7.565770560699295E+01,      /* J = 17 */
(PID.TID 0000.0001)                -7.526116458910658E+01,      /* J = 18 */
(PID.TID 0000.0001)                -7.486087379640449E+01,      /* J = 19 */
(PID.TID 0000.0001)                -7.445686936886233E+01,      /* J = 20 */
(PID.TID 0000.0001)                -7.404918768854837E+01,      /* J = 21 */
(PID.TID 0000.0001)                -7.363786544493549E+01,      /* J = 22 */
(PID.TID 0000.0001)                -7.322293969328220E+01,      /* J = 23 */
(PID.TID 0000.0001)                -7.280444790682334E+01,      /* J = 24 */
(PID.TID 0000.0001)                -7.238242802328044E+01,      /* J = 25 */
(PID.TID 0000.0001)                -7.195691848614972E+01,      /* J = 26 */
(PID.TID 0000.0001)                -7.152795828082729E+01,      /* J = 27 */
(PID.TID 0000.0001)                -7.109558696482472E+01,      /* J = 28 */
(PID.TID 0000.0001)                -7.065984468855757E+01,      /* J = 29 */
(PID.TID 0000.0001)                -7.022077218177122E+01       /* J = 30 */
(PID.TID 0000.0001)     ;
(PID.TID 0000.0001) rcoord = /* P-point R coordinate (  units of r ) */
(PID.TID 0000.0001)                -5.000000000000000E+00,      /* K =  1 */
(PID.TID 0000.0001)                -1.500000000000000E+01,      /* K =  2 */
(PID.TID 0000.0001)                -2.500000000000000E+01,      /* K =  3 */
(PID.TID 0000.0001)                -3.500000000000000E+01,      /* K =  4 */
(PID.TID 0000.0001)                -4.500000000000000E+01,      /* K =  5 */
(PID.TID 0000.0001)                -5.500000000000000E+01,      /* K =  6 */
(PID.TID 0000.0001)                -6.500000000000000E+01,      /* K =  7 */
(PID.TID 0000.0001)                -7.500500000000000E+01,      /* K =  8 */
(PID.TID 0000.0001)                -8.502499999999999E+01,      /* K =  9 */
(PID.TID 0000.0001)                -9.509500000000000E+01,      /* K = 10 */
(PID.TID 0000.0001)                -1.053100000000000E+02,      /* K = 11 */
(PID.TID 0000.0001)                -1.158700000000000E+02,      /* K = 12 */
(PID.TID 0000.0001)                -1.271500000000000E+02,      /* K = 13 */
(PID.TID 0000.0001)                -1.397400000000000E+02,      /* K = 14 */
(PID.TID 0000.0001)                -1.544700000000000E+02,      /* K = 15 */
(PID.TID 0000.0001)                -1.724000000000000E+02,      /* K = 16 */
(PID.TID 0000.0001)                -1.947350000000000E+02,      /* K = 17 */
(PID.TID 0000.0001)                -2.227100000000000E+02,      /* K = 18 */
(PID.TID 0000.0001)                -2.574700000000000E+02,      /* K = 19 */
(PID.TID 0000.0001)                -2.999300000000000E+02,      /* K = 20 */
(PID.TID 0000.0001)                -3.506800000000000E+02,      /* K = 21 */
(PID.TID 0000.0001)                -4.099300000000000E+02,      /* K = 22 */
(PID.TID 0000.0001)                -4.774700000000000E+02,      /* K = 23 */
(PID.TID 0000.0001)                -5.527100000000000E+02,      /* K = 24 */
(PID.TID 0000.0001)                -6.347350000000000E+02,      /* K = 25 */
(PID.TID 0000.0001)                -7.224000000000000E+02,      /* K = 26 */
(PID.TID 0000.0001)                -8.144700000000000E+02,      /* K = 27 */
(PID.TID 0000.0001)                -9.097400000000000E+02,      /* K = 28 */
(PID.TID 0000.0001)                -1.007155000000000E+03,      /* K = 29 */
(PID.TID 0000.0001)                -1.105905000000000E+03,      /* K = 30 */
(PID.TID 0000.0001)                -1.205535000000000E+03,      /* K = 31 */
(PID.TID 0000.0001)                -1.306205000000000E+03,      /* K = 32 */
(PID.TID 0000.0001)                -1.409150000000000E+03,      /* K = 33 */
(PID.TID 0000.0001)                -1.517095000000000E+03,      /* K = 34 */
(PID.TID 0000.0001)                -1.634175000000000E+03,      /* K = 35 */
(PID.TID 0000.0001)                -1.765135000000000E+03,      /* K = 36 */
(PID.TID 0000.0001)                -1.914150000000000E+03,      /* K = 37 */
(PID.TID 0000.0001)                -2.084035000000000E+03,      /* K = 38 */
(PID.TID 0000.0001)                -2.276225000000000E+03,      /* K = 39 */
(PID.TID 0000.0001)                -2.491250000000000E+03,      /* K = 40 */
(PID.TID 0000.0001)                -2.729250000000000E+03,      /* K = 41 */
(PID.TID 0000.0001)                -2.990250000000000E+03,      /* K = 42 */
(PID.TID 0000.0001)                -3.274250000000000E+03,      /* K = 43 */
(PID.TID 0000.0001)                -3.581250000000000E+03,      /* K = 44 */
(PID.TID 0000.0001)                -3.911250000000000E+03,      /* K = 45 */
(PID.TID 0000.0001)                -4.264250000000000E+03,      /* K = 46 */
(PID.TID 0000.0001)                -4.640250000000000E+03,      /* K = 47 */
(PID.TID 0000.0001)                -5.039250000000000E+03,      /* K = 48 */
(PID.TID 0000.0001)                -5.461250000000000E+03,      /* K = 49 */
(PID.TID 0000.0001)                -5.906250000000000E+03       /* K = 50 */
(PID.TID 0000.0001)     ;
(PID.TID 0000.0001) rF =   /* W-Interf. R coordinate (  units of r ) */
(PID.TID 0000.0001)                 0.000000000000000E+00,      /* K =  1 */
(PID.TID 0000.0001)                -1.000000000000000E+01,      /* K =  2 */
(PID.TID 0000.0001)                -2.000000000000000E+01,      /* K =  3 */
(PID.TID 0000.0001)                -3.000000000000000E+01,      /* K =  4 */
(PID.TID 0000.0001)                -4.000000000000000E+01,      /* K =  5 */
(PID.TID 0000.0001)                -5.000000000000000E+01,      /* K =  6 */
(PID.TID 0000.0001)                -6.000000000000000E+01,      /* K =  7 */
(PID.TID 0000.0001)                -7.000000000000000E+01,      /* K =  8 */
(PID.TID 0000.0001)                -8.001000000000001E+01,      /* K =  9 */
(PID.TID 0000.0001)                -9.004000000000001E+01,      /* K = 10 */
(PID.TID 0000.0001)                -1.001500000000000E+02,      /* K = 11 */
(PID.TID 0000.0001)                -1.104700000000000E+02,      /* K = 12 */
(PID.TID 0000.0001)                -1.212700000000000E+02,      /* K = 13 */
(PID.TID 0000.0001)                -1.330300000000000E+02,      /* K = 14 */
(PID.TID 0000.0001)                -1.464500000000000E+02,      /* K = 15 */
(PID.TID 0000.0001)                -1.624900000000000E+02,      /* K = 16 */
(PID.TID 0000.0001)                -1.823100000000000E+02,      /* K = 17 */
(PID.TID 0000.0001)                -2.071600000000000E+02,      /* K = 18 */
(PID.TID 0000.0001)                -2.382600000000000E+02,      /* K = 19 */
(PID.TID 0000.0001)                -2.766799999999999E+02,      /* K = 20 */
(PID.TID 0000.0001)                -3.231799999999999E+02,      /* K = 21 */
(PID.TID 0000.0001)                -3.781799999999999E+02,      /* K = 22 */
(PID.TID 0000.0001)                -4.416799999999999E+02,      /* K = 23 */
(PID.TID 0000.0001)                -5.132600000000000E+02,      /* K = 24 */
(PID.TID 0000.0001)                -5.921600000000000E+02,      /* K = 25 */
(PID.TID 0000.0001)                -6.773099999999999E+02,      /* K = 26 */
(PID.TID 0000.0001)                -7.674900000000000E+02,      /* K = 27 */
(PID.TID 0000.0001)                -8.614500000000000E+02,      /* K = 28 */
(PID.TID 0000.0001)                -9.580300000000001E+02,      /* K = 29 */
(PID.TID 0000.0001)                -1.056280000000000E+03,      /* K = 30 */
(PID.TID 0000.0001)                -1.155530000000000E+03,      /* K = 31 */
(PID.TID 0000.0001)                -1.255540000000000E+03,      /* K = 32 */
(PID.TID 0000.0001)                -1.356870000000000E+03,      /* K = 33 */
(PID.TID 0000.0001)                -1.461430000000000E+03,      /* K = 34 */
(PID.TID 0000.0001)                -1.572760000000000E+03,      /* K = 35 */
(PID.TID 0000.0001)                -1.695590000000000E+03,      /* K = 36 */
(PID.TID 0000.0001)                -1.834680000000000E+03,      /* K = 37 */
(PID.TID 0000.0001)                -1.993620000000000E+03,      /* K = 38 */
(PID.TID 0000.0001)                -2.174450000000000E+03,      /* K = 39 */
(PID.TID 0000.0001)                -2.378000000000000E+03,      /* K = 40 */
(PID.TID 0000.0001)                -2.604500000000000E+03,      /* K = 41 */
(PID.TID 0000.0001)                -2.854000000000000E+03,      /* K = 42 */
(PID.TID 0000.0001)                -3.126500000000000E+03,      /* K = 43 */
(PID.TID 0000.0001)                -3.422000000000000E+03,      /* K = 44 */
(PID.TID 0000.0001)                -3.740500000000000E+03,      /* K = 45 */
(PID.TID 0000.0001)                -4.082000000000000E+03,      /* K = 46 */
(PID.TID 0000.0001)                -4.446500000000000E+03,      /* K = 47 */
(PID.TID 0000.0001)                -4.834000000000000E+03,      /* K = 48 */
(PID.TID 0000.0001)                -5.244500000000000E+03,      /* K = 49 */
(PID.TID 0000.0001)                -5.678000000000000E+03,      /* K = 50 */
(PID.TID 0000.0001)                -6.134500000000000E+03       /* K = 51 */
(PID.TID 0000.0001)     ;
(PID.TID 0000.0001) deepFacC = /* deep-model grid factor @ cell-Center (-) */
(PID.TID 0000.0001)    50 @  1.000000000000000E+00              /* K =  1: 50 */
(PID.TID 0000.0001)     ;
(PID.TID 0000.0001) deepFacF = /* deep-model grid factor @ W-Interface (-) */
(PID.TID 0000.0001)    51 @  1.000000000000000E+00              /* K =  1: 51 */
(PID.TID 0000.0001)     ;
(PID.TID 0000.0001) rVel2wUnit = /* convert units: rVel -> wSpeed (=1 if z-coord)*/
(PID.TID 0000.0001)    51 @  1.000000000000000E+00              /* K =  1: 51 */
(PID.TID 0000.0001)     ;
(PID.TID 0000.0001) wUnit2rVel = /* convert units: wSpeed -> rVel (=1 if z-coord)*/
(PID.TID 0000.0001)    51 @  1.000000000000000E+00              /* K =  1: 51 */
(PID.TID 0000.0001)     ;
(PID.TID 0000.0001) dBdrRef = /* Vertical grad. of reference buoyancy [(m/s/r)^2] */
(PID.TID 0000.0001)     3 @  0.000000000000000E+00,             /* K =  1:  3 */
(PID.TID 0000.0001)                 2.710009878211941E-04,      /* K =  4 */
(PID.TID 0000.0001)     2 @  0.000000000000000E+00,             /* K =  5:  6 */
(PID.TID 0000.0001)                 2.636625418269014E-04,      /* K =  7 */
(PID.TID 0000.0001)                 2.558031727841269E-04,      /* K =  8 */
(PID.TID 0000.0001)                 0.000000000000000E+00,      /* K =  9 */
(PID.TID 0000.0001)                 2.465097609409217E-04,      /* K = 10 */
(PID.TID 0000.0001)                 2.352100435611475E-04,      /* K = 11 */
(PID.TID 0000.0001)                 0.000000000000000E+00,      /* K = 12 */
(PID.TID 0000.0001)                 2.059824810681317E-04,      /* K = 13 */
(PID.TID 0000.0001)                 1.780333657351851E-04,      /* K = 14 */
(PID.TID 0000.0001)                 0.000000000000000E+00,      /* K = 15 */
(PID.TID 0000.0001)                 1.205267729858628E-04,      /* K = 16 */
(PID.TID 0000.0001)                 9.301885331159507E-05,      /* K = 17 */
(PID.TID 0000.0001)                 7.126049663232381E-05,      /* K = 18 */
(PID.TID 0000.0001)                 5.492180008088694E-05,      /* K = 19 */
(PID.TID 0000.0001)                 4.297011162312342E-05,      /* K = 20 */
(PID.TID 0000.0001)                 6.668082313416848E-05,      /* K = 21 */
(PID.TID 0000.0001)                 0.000000000000000E+00,      /* K = 22 */
(PID.TID 0000.0001)                 2.326903218052740E-05,      /* K = 23 */
(PID.TID 0000.0001)                 1.977341620137575E-05,      /* K = 24 */
(PID.TID 0000.0001)                 1.711721017074719E-05,      /* K = 25 */
(PID.TID 0000.0001)                 0.000000000000000E+00,      /* K = 26 */
(PID.TID 0000.0001)                 1.457272127111402E-05,      /* K = 27 */
(PID.TID 0000.0001)                 0.000000000000000E+00,      /* K = 28 */
(PID.TID 0000.0001)                 1.316856539126343E-05,      /* K = 29 */
(PID.TID 0000.0001)     2 @  0.000000000000000E+00,             /* K = 30: 31 */
(PID.TID 0000.0001)                 1.242324286947067E-05,      /* K = 32 */
(PID.TID 0000.0001)     2 @  0.000000000000000E+00,             /* K = 33: 34 */
(PID.TID 0000.0001)                 1.046164470422772E-05,      /* K = 35 */
(PID.TID 0000.0001)     3 @  0.000000000000000E+00,             /* K = 36: 38 */
(PID.TID 0000.0001)                 6.634176617958632E-06,      /* K = 39 */
(PID.TID 0000.0001)    11 @  0.000000000000000E+00              /* K = 40: 50 */
(PID.TID 0000.0001)     ;
(PID.TID 0000.0001) rotateGrid = /* use rotated grid ( True/False ) */
(PID.TID 0000.0001)                   F
(PID.TID 0000.0001)     ;
(PID.TID 0000.0001) phiEuler = /* Euler angle, rotation about original z-coordinate [rad] */
(PID.TID 0000.0001)                 0.000000000000000E+00
(PID.TID 0000.0001)     ;
(PID.TID 0000.0001) thetaEuler = /* Euler angle, rotation about new x-coordinate [rad] */
(PID.TID 0000.0001)                 0.000000000000000E+00
(PID.TID 0000.0001)     ;
(PID.TID 0000.0001) psiEuler = /* Euler angle, rotation about new z-coordinate [rad] */
(PID.TID 0000.0001)                 0.000000000000000E+00
(PID.TID 0000.0001)     ;
(PID.TID 0000.0001) dxF =  /* dxF(:,1,:,1) ( units: m ) */
(PID.TID 0000.0001)                 2.071152825743187E+04,      /* I =  1 */
(PID.TID 0000.0001)                 2.070365142756831E+04,      /* I =  2 */
(PID.TID 0000.0001)                 2.069635296570141E+04,      /* I =  3 */
(PID.TID 0000.0001)                 2.068965358413176E+04,      /* I =  4 */
(PID.TID 0000.0001)                 2.068357195583360E+04,      /* I =  5 */
(PID.TID 0000.0001)                 2.067812475356784E+04,      /* I =  6 */
(PID.TID 0000.0001)                 2.067332670125947E+04,      /* I =  7 */
(PID.TID 0000.0001)                 2.066919060389092E+04,      /* I =  8 */
(PID.TID 0000.0001)                 2.066572738985245E+04,      /* I =  9 */
(PID.TID 0000.0001)                 2.066294615597989E+04,      /* I = 10 */
(PID.TID 0000.0001)                 2.066085425372315E+04,      /* I = 11 */
(PID.TID 0000.0001)                 2.065945771525925E+04,      /* I = 12 */
(PID.TID 0000.0001)                 2.065874381268158E+04,      /* I = 13 */
(PID.TID 0000.0001)                 2.065874381268158E+04,      /* I = 14 */
(PID.TID 0000.0001)                 2.065945771525925E+04,      /* I = 15 */
(PID.TID 0000.0001)                 2.066085425372316E+04,      /* I = 16 */
(PID.TID 0000.0001)                 2.066294615597989E+04,      /* I = 17 */
(PID.TID 0000.0001)                 2.066572738985245E+04,      /* I = 18 */
(PID.TID 0000.0001)                 2.066919060389088E+04,      /* I = 19 */
(PID.TID 0000.0001)                 2.067332670125956E+04,      /* I = 20 */
(PID.TID 0000.0001)                 2.067812475356780E+04,      /* I = 21 */
(PID.TID 0000.0001)                 2.068357195583360E+04,      /* I = 22 */
(PID.TID 0000.0001)                 2.068965358413182E+04,      /* I = 23 */
(PID.TID 0000.0001)                 2.069635296570133E+04,      /* I = 24 */
(PID.TID 0000.0001)                 2.070365142756836E+04,      /* I = 25 */
(PID.TID 0000.0001)                 2.071152825743182E+04,      /* I = 26 */
(PID.TID 0000.0001)                 2.071996065138743E+04,      /* I = 27 */
(PID.TID 0000.0001)                 2.072892365863983E+04,      /* I = 28 */
(PID.TID 0000.0001)                 2.073839012765668E+04,      /* I = 29 */
(PID.TID 0000.0001)                 2.074833063718403E+04       /* I = 30 */
(PID.TID 0000.0001)     ;
(PID.TID 0000.0001) dxF =  /* dxF(1,:,1,:) ( units: m ) */
(PID.TID 0000.0001)                 2.071152825743187E+04,      /* J =  1 */
(PID.TID 0000.0001)                 2.109117491456033E+04,      /* J =  2 */
(PID.TID 0000.0001)                 2.148525648961724E+04,      /* J =  3 */
(PID.TID 0000.0001)                 2.189377348588603E+04,      /* J =  4 */
(PID.TID 0000.0001)                 2.231672440915243E+04,      /* J =  5 */
(PID.TID 0000.0001)                 2.275410689480659E+04,      /* J =  6 */
(PID.TID 0000.0001)                 2.320591873318126E+04,      /* J =  7 */
(PID.TID 0000.0001)                 2.367215879054831E+04,      /* J =  8 */
(PID.TID 0000.0001)                 2.415282782538908E+04,      /* J =  9 */
(PID.TID 0000.0001)                 2.464792920101809E+04,      /* J = 10 */
(PID.TID 0000.0001)                 2.515746949702995E+04,      /* J = 11 */
(PID.TID 0000.0001)                 2.568145902315334E+04,      /* J = 12 */
(PID.TID 0000.0001)                 2.621991223981432E+04,      /* J = 13 */
(PID.TID 0000.0001)                 2.677284809033052E+04,      /* J = 14 */
(PID.TID 0000.0001)                 2.734029025013979E+04,      /* J = 15 */
(PID.TID 0000.0001)                 2.792226729855568E+04,      /* J = 16 */
(PID.TID 0000.0001)                 2.851881281852892E+04,      /* J = 17 */
(PID.TID 0000.0001)                 2.912996543046302E+04,      /* J = 18 */
(PID.TID 0000.0001)                 2.975576876502299E+04,      /* J = 19 */
(PID.TID 0000.0001)                 3.039627138062681E+04,      /* J = 20 */
(PID.TID 0000.0001)                 3.105152663065675E+04,      /* J = 21 */
(PID.TID 0000.0001)                 3.172159248542454E+04,      /* J = 22 */
(PID.TID 0000.0001)                 3.240653131349731E+04,      /* J = 23 */
(PID.TID 0000.0001)                 3.310640962675057E+04,      /* J = 24 */
(PID.TID 0000.0001)                 3.382129779388320E+04,      /* J = 25 */
(PID.TID 0000.0001)                 3.455126972555294E+04,      /* J = 26 */
(PID.TID 0000.0001)                 3.529640253603521E+04,      /* J = 27 */
(PID.TID 0000.0001)                 3.605677618612848E+04,      /* J = 28 */
(PID.TID 0000.0001)                 3.683247311866502E+04,      /* J = 29 */
(PID.TID 0000.0001)                 3.762357793548112E+04       /* J = 30 */
(PID.TID 0000.0001)     ;
(PID.TID 0000.0001) dyF =  /* dyF(:,1,:,1) ( units: m ) */
(PID.TID 0000.0001)                 3.700742300337598E+04,      /* I =  1 */
(PID.TID 0000.0001)                 3.707905556394973E+04,      /* I =  2 */
(PID.TID 0000.0001)                 3.714471828319018E+04,      /* I =  3 */
(PID.TID 0000.0001)                 3.720441078960103E+04,      /* I =  4 */
(PID.TID 0000.0001)                 3.725813297080282E+04,      /* I =  5 */
(PID.TID 0000.0001)                 3.730588490725751E+04,      /* I =  6 */
(PID.TID 0000.0001)                 3.734766681359038E+04,      /* I =  7 */
(PID.TID 0000.0001)                 3.738347898712025E+04,      /* I =  8 */
(PID.TID 0000.0001)                 3.741332176340629E+04,      /* I =  9 */
(PID.TID 0000.0001)                 3.743719547859261E+04,      /* I = 10 */
(PID.TID 0000.0001)                 3.745510043824806E+04,      /* I = 11 */
(PID.TID 0000.0001)                 3.746703689267323E+04,      /* I = 12 */
(PID.TID 0000.0001)     2 @  3.747300501832417E+04,             /* I = 13: 14 */
(PID.TID 0000.0001)                 3.746703689267323E+04,      /* I = 15 */
(PID.TID 0000.0001)                 3.745510043824806E+04,      /* I = 16 */
(PID.TID 0000.0001)                 3.743719547859261E+04,      /* I = 17 */
(PID.TID 0000.0001)                 3.741332176340628E+04,      /* I = 18 */
(PID.TID 0000.0001)                 3.738347898712024E+04,      /* I = 19 */
(PID.TID 0000.0001)                 3.734766681359040E+04,      /* I = 20 */
(PID.TID 0000.0001)                 3.730588490725750E+04,      /* I = 21 */
(PID.TID 0000.0001)                 3.725813297080281E+04,      /* I = 22 */
(PID.TID 0000.0001)                 3.720441078960103E+04,      /* I = 23 */
(PID.TID 0000.0001)                 3.714471828319017E+04,      /* I = 24 */
(PID.TID 0000.0001)                 3.707905556394973E+04,      /* I = 25 */
(PID.TID 0000.0001)                 3.700742300337599E+04,      /* I = 26 */
(PID.TID 0000.0001)                 3.692982130617692E+04,      /* I = 27 */
(PID.TID 0000.0001)                 3.684625159269555E+04,      /* I = 28 */
(PID.TID 0000.0001)                 3.675671548992459E+04,      /* I = 29 */
(PID.TID 0000.0001)                 3.666121523181524E+04       /* I = 30 */
(PID.TID 0000.0001)     ;
(PID.TID 0000.0001) dyF =  /* dyF(1,:,1,:) ( units: m ) */
(PID.TID 0000.0001)                 3.700742300337598E+04,      /* J =  1 */
(PID.TID 0000.0001)                 3.745555642044499E+04,      /* J =  2 */
(PID.TID 0000.0001)                 3.790206217653974E+04,      /* J =  3 */
(PID.TID 0000.0001)                 3.834684105117956E+04,      /* J =  4 */
(PID.TID 0000.0001)                 3.878979459357282E+04,      /* J =  5 */
(PID.TID 0000.0001)                 3.923082521328924E+04,      /* J =  6 */
(PID.TID 0000.0001)                 3.966983623246408E+04,      /* J =  7 */
(PID.TID 0000.0001)                 4.010673190475840E+04,      /* J =  8 */
(PID.TID 0000.0001)                 4.054141740950450E+04,      /* J =  9 */
(PID.TID 0000.0001)                 4.097379882434454E+04,      /* J = 10 */
(PID.TID 0000.0001)                 4.140378308084428E+04,      /* J = 11 */
(PID.TID 0000.0001)                 4.183127790875583E+04,      /* J = 12 */
(PID.TID 0000.0001)                 4.225619177206317E+04,      /* J = 13 */
(PID.TID 0000.0001)                 4.267843379867976E+04,      /* J = 14 */
(PID.TID 0000.0001)                 4.309791371221616E+04,      /* J = 15 */
(PID.TID 0000.0001)                 4.351454176087940E+04,      /* J = 16 */
(PID.TID 0000.0001)                 4.392822864881465E+04,      /* J = 17 */
(PID.TID 0000.0001)                 4.433888547805120E+04,      /* J = 18 */
(PID.TID 0000.0001)                 4.474642369096899E+04,      /* J = 19 */
(PID.TID 0000.0001)                 4.515075502217317E+04,      /* J = 20 */
(PID.TID 0000.0001)                 4.555179145554101E+04,      /* J = 21 */
(PID.TID 0000.0001)                 4.594944520275577E+04,      /* J = 22 */
(PID.TID 0000.0001)                 4.634362867401398E+04,      /* J = 23 */
(PID.TID 0000.0001)                 4.673425447947427E+04,      /* J = 24 */
(PID.TID 0000.0001)                 4.712123544873745E+04,      /* J = 25 */
(PID.TID 0000.0001)                 4.750448467975499E+04,      /* J = 26 */
(PID.TID 0000.0001)                 4.788391567392174E+04,      /* J = 27 */
(PID.TID 0000.0001)                 4.825944271092693E+04,      /* J = 28 */
(PID.TID 0000.0001)                 4.863098220111143E+04,      /* J = 29 */
(PID.TID 0000.0001)                 4.899845499569884E+04       /* J = 30 */
(PID.TID 0000.0001)     ;
(PID.TID 0000.0001) dxG =  /* dxG(:,1,:,1) ( units: m ) */
(PID.TID 0000.0001)                 2.052711702021451E+04,      /* I =  1 */
(PID.TID 0000.0001)                 2.051953983526162E+04,      /* I =  2 */
(PID.TID 0000.0001)                 2.051251425926268E+04,      /* I =  3 */
(PID.TID 0000.0001)                 2.050606148013825E+04,      /* I =  4 */
(PID.TID 0000.0001)                 2.050020059906299E+04,      /* I =  5 */
(PID.TID 0000.0001)                 2.049494867086169E+04,      /* I =  6 */
(PID.TID 0000.0001)                 2.049032075633103E+04,      /* I =  7 */
(PID.TID 0000.0001)                 2.048632995314923E+04,      /* I =  8 */
(PID.TID 0000.0001)                 2.048298743895549E+04,      /* I =  9 */
(PID.TID 0000.0001)                 2.048030251694177E+04,      /* I = 10 */
(PID.TID 0000.0001)                 2.047828270203973E+04,      /* I = 11 */
(PID.TID 0000.0001)                 2.047693414389448E+04,      /* I = 12 */
(PID.TID 0000.0001)     2 @  2.047624433858785E+04,             /* I = 13: 14 */
(PID.TID 0000.0001)                 2.047693414389443E+04,      /* I = 15 */
(PID.TID 0000.0001)                 2.047828270203978E+04,      /* I = 16 */
(PID.TID 0000.0001)                 2.048030251694177E+04,      /* I = 17 */
(PID.TID 0000.0001)                 2.048298743895548E+04,      /* I = 18 */
(PID.TID 0000.0001)                 2.048632995314927E+04,      /* I = 19 */
(PID.TID 0000.0001)                 2.049032075633093E+04,      /* I = 20 */
(PID.TID 0000.0001)                 2.049494867086174E+04,      /* I = 21 */
(PID.TID 0000.0001)                 2.050020059906297E+04,      /* I = 22 */
(PID.TID 0000.0001)                 2.050606148013830E+04,      /* I = 23 */
(PID.TID 0000.0001)                 2.051251425926268E+04,      /* I = 24 */
(PID.TID 0000.0001)                 2.051953983526163E+04,      /* I = 25 */
(PID.TID 0000.0001)                 2.052711702021443E+04,      /* I = 26 */
(PID.TID 0000.0001)                 2.053522248594683E+04,      /* I = 27 */
(PID.TID 0000.0001)                 2.054383070727552E+04,      /* I = 28 */
(PID.TID 0000.0001)                 2.055291390664790E+04,      /* I = 29 */
(PID.TID 0000.0001)                 2.056244198352907E+04       /* I = 30 */
(PID.TID 0000.0001)     ;
(PID.TID 0000.0001) dxG =  /* dxG(1,:,1,:) ( units: m ) */
(PID.TID 0000.0001)                 2.052711702021451E+04,      /* J =  1 */
(PID.TID 0000.0001)                 2.089954736357391E+04,      /* J =  2 */
(PID.TID 0000.0001)                 2.128641124518697E+04,      /* J =  3 */
(PID.TID 0000.0001)                 2.168771062037700E+04,      /* J =  4 */
(PID.TID 0000.0001)                 2.210344484655194E+04,      /* J =  5 */
(PID.TID 0000.0001)                 2.253361185972884E+04,      /* J =  6 */
(PID.TID 0000.0001)                 2.297820925105574E+04,      /* J =  7 */
(PID.TID 0000.0001)                 2.343723524028478E+04,      /* J =  8 */
(PID.TID 0000.0001)                 2.391068954427550E+04,      /* J =  9 */
(PID.TID 0000.0001)                 2.439857414125275E+04,      /* J = 10 */
(PID.TID 0000.0001)                 2.490089393241153E+04,      /* J = 11 */
(PID.TID 0000.0001)                 2.541765730414359E+04,      /* J = 12 */
(PID.TID 0000.0001)                 2.594887659459613E+04,      /* J = 13 */
(PID.TID 0000.0001)                 2.649456846940333E+04,      /* J = 14 */
(PID.TID 0000.0001)                 2.705475421181358E+04,      /* J = 15 */
(PID.TID 0000.0001)                 2.762945993231310E+04,      /* J = 16 */
(PID.TID 0000.0001)                 2.821871670385097E+04,      /* J = 17 */
(PID.TID 0000.0001)                 2.882256062780631E+04,      /* J = 18 */
(PID.TID 0000.0001)                 2.944103283669238E+04,      /* J = 19 */
(PID.TID 0000.0001)                 3.007417943861200E+04,      /* J = 20 */
(PID.TID 0000.0001)                 3.072205140902393E+04,      /* J = 21 */
(PID.TID 0000.0001)                 3.138470443467240E+04,      /* J = 22 */
(PID.TID 0000.0001)                 3.206219871470027E+04,      /* J = 23 */
(PID.TID 0000.0001)                 3.275459872326910E+04,      /* J = 24 */
(PID.TID 0000.0001)                 3.346197293831744E+04,      /* J = 25 */
(PID.TID 0000.0001)                 3.418439354048331E+04,      /* J = 26 */
(PID.TID 0000.0001)                 3.492193608585089E+04,      /* J = 27 */
(PID.TID 0000.0001)                 3.567467915738818E+04,      /* J = 28 */
(PID.TID 0000.0001)                 3.644270400216877E+04,      /* J = 29 */
(PID.TID 0000.0001)                 3.722609417427087E+04       /* J = 30 */
(PID.TID 0000.0001)     ;
(PID.TID 0000.0001) dyG =  /* dyG(:,1,:,1) ( units: m ) */
(PID.TID 0000.0001)                 3.696936823759973E+04,      /* I =  1 */
(PID.TID 0000.0001)                 3.704398547852144E+04,      /* I =  2 */
(PID.TID 0000.0001)                 3.711263318385338E+04,      /* I =  3 */
(PID.TID 0000.0001)                 3.717531082528212E+04,      /* I =  4 */
(PID.TID 0000.0001)                 3.723201816961422E+04,      /* I =  5 */
(PID.TID 0000.0001)                 3.728275520872145E+04,      /* I =  6 */
(PID.TID 0000.0001)                 3.732752209699158E+04,      /* I =  7 */
(PID.TID 0000.0001)                 3.736631909640826E+04,      /* I =  8 */
(PID.TID 0000.0001)                 3.739914652852553E+04,      /* I =  9 */
(PID.TID 0000.0001)                 3.742600473350589E+04,      /* I = 10 */
(PID.TID 0000.0001)                 3.744689403567852E+04,      /* I = 11 */
(PID.TID 0000.0001)                 3.746181471567877E+04,      /* I = 12 */
(PID.TID 0000.0001)                 3.747076698884368E+04,      /* I = 13 */
(PID.TID 0000.0001)                 3.747376174977726E+04,      /* I = 14 */
(PID.TID 0000.0001)                 3.747076698884368E+04,      /* I = 15 */
(PID.TID 0000.0001)                 3.746181471567877E+04,      /* I = 16 */
(PID.TID 0000.0001)                 3.744689403567852E+04,      /* I = 17 */
(PID.TID 0000.0001)                 3.742600473350589E+04,      /* I = 18 */
(PID.TID 0000.0001)                 3.739914652852552E+04,      /* I = 19 */
(PID.TID 0000.0001)                 3.736631909640826E+04,      /* I = 20 */
(PID.TID 0000.0001)                 3.732752209699157E+04,      /* I = 21 */
(PID.TID 0000.0001)                 3.728275520872146E+04,      /* I = 22 */
(PID.TID 0000.0001)                 3.723201816961422E+04,      /* I = 23 */
(PID.TID 0000.0001)                 3.717531082528211E+04,      /* I = 24 */
(PID.TID 0000.0001)                 3.711263318385338E+04,      /* I = 25 */
(PID.TID 0000.0001)                 3.704398547852145E+04,      /* I = 26 */
(PID.TID 0000.0001)                 3.696936823759972E+04,      /* I = 27 */
(PID.TID 0000.0001)                 3.688878236278851E+04,      /* I = 28 */
(PID.TID 0000.0001)                 3.680222921581766E+04,      /* I = 29 */
(PID.TID 0000.0001)                 3.670971071402137E+04       /* I = 30 */
(PID.TID 0000.0001)     ;
(PID.TID 0000.0001) dyG =  /* dyG(1,:,1,:) ( units: m ) */
(PID.TID 0000.0001)                 3.696936823759973E+04,      /* J =  1 */
(PID.TID 0000.0001)                 3.741746190559281E+04,      /* J =  2 */
(PID.TID 0000.0001)                 3.786390067184393E+04,      /* J =  3 */
(PID.TID 0000.0001)                 3.830858172733455E+04,      /* J =  4 */
(PID.TID 0000.0001)                 3.875140319955796E+04,      /* J =  5 */
(PID.TID 0000.0001)                 3.919226424948571E+04,      /* J =  6 */
(PID.TID 0000.0001)                 3.963106512715793E+04,      /* J =  7 */
(PID.TID 0000.0001)                 4.006770719102380E+04,      /* J =  8 */
(PID.TID 0000.0001)                 4.050209290047463E+04,      /* J =  9 */
(PID.TID 0000.0001)                 4.093412578484027E+04,      /* J = 10 */
(PID.TID 0000.0001)                 4.136371039407872E+04,      /* J = 11 */
(PID.TID 0000.0001)                 4.179075223673176E+04,      /* J = 12 */
(PID.TID 0000.0001)                 4.221515770920290E+04,      /* J = 13 */
(PID.TID 0000.0001)                 4.263683401805614E+04,      /* J = 14 */
(PID.TID 0000.0001)                 4.305568910412182E+04,      /* J = 15 */
(PID.TID 0000.0001)                 4.347163156363047E+04,      /* J = 16 */
(PID.TID 0000.0001)                 4.388457057225752E+04,      /* J = 17 */
(PID.TID 0000.0001)                 4.429441581934092E+04,      /* J = 18 */
(PID.TID 0000.0001)                 4.470107744374240E+04,      /* J = 19 */
(PID.TID 0000.0001)                 4.510446597891348E+04,      /* J = 20 */
(PID.TID 0000.0001)                 4.550449230395439E+04,      /* J = 21 */
(PID.TID 0000.0001)                 4.590106761654920E+04,      /* J = 22 */
(PID.TID 0000.0001)                 4.629410339849156E+04,      /* J = 23 */
(PID.TID 0000.0001)                 4.668351141269982E+04,      /* J = 24 */
(PID.TID 0000.0001)                 4.706920371856177E+04,      /* J = 25 */
(PID.TID 0000.0001)                 4.745109271730031E+04,      /* J = 26 */
(PID.TID 0000.0001)                 4.782909128417812E+04,      /* J = 27 */
(PID.TID 0000.0001)                 4.820311314005602E+04,      /* J = 28 */
(PID.TID 0000.0001)                 4.857307420014453E+04,      /* J = 29 */
(PID.TID 0000.0001)                 4.893889490827491E+04       /* J = 30 */
(PID.TID 0000.0001)     ;
(PID.TID 0000.0001) dxC =  /* dxC(:,1,:,1) ( units: m ) */
(PID.TID 0000.0001)                 2.071567651695695E+04,      /* I =  1 */
(PID.TID 0000.0001)                 2.070751892245589E+04,      /* I =  2 */
(PID.TID 0000.0001)                 2.069992855779408E+04,      /* I =  3 */
(PID.TID 0000.0001)                 2.069292717562287E+04,      /* I =  4 */
(PID.TID 0000.0001)                 2.068653446229046E+04,      /* I =  5 */
(PID.TID 0000.0001)                 2.068076808552306E+04,      /* I =  6 */
(PID.TID 0000.0001)                 2.067564373903614E+04,      /* I =  7 */
(PID.TID 0000.0001)                 2.067117518190149E+04,      /* I =  8 */
(PID.TID 0000.0001)                 2.066737427558298E+04,      /* I =  9 */
(PID.TID 0000.0001)                 2.066425102685107E+04,      /* I = 10 */
(PID.TID 0000.0001)                 2.066181364132844E+04,      /* I = 11 */
(PID.TID 0000.0001)                 2.066006869803818E+04,      /* I = 12 */
(PID.TID 0000.0001)                 2.065902266229015E+04,      /* I = 13 */
(PID.TID 0000.0001)                 2.065863826775786E+04,      /* I = 14 */
(PID.TID 0000.0001)                 2.065902266229016E+04,      /* I = 15 */
(PID.TID 0000.0001)                 2.066006869803813E+04,      /* I = 16 */
(PID.TID 0000.0001)                 2.066181364132850E+04,      /* I = 17 */
(PID.TID 0000.0001)                 2.066425102685108E+04,      /* I = 18 */
(PID.TID 0000.0001)                 2.066737427558298E+04,      /* I = 19 */
(PID.TID 0000.0001)                 2.067117518190149E+04,      /* I = 20 */
(PID.TID 0000.0001)                 2.067564373903615E+04,      /* I = 21 */
(PID.TID 0000.0001)                 2.068076808552304E+04,      /* I = 22 */
(PID.TID 0000.0001)                 2.068653446229045E+04,      /* I = 23 */
(PID.TID 0000.0001)                 2.069292717562287E+04,      /* I = 24 */
(PID.TID 0000.0001)                 2.069992855779413E+04,      /* I = 25 */
(PID.TID 0000.0001)                 2.070751892245584E+04,      /* I = 26 */
(PID.TID 0000.0001)                 2.071567651695691E+04,      /* I = 27 */
(PID.TID 0000.0001)                 2.072437747324421E+04,      /* I = 28 */
(PID.TID 0000.0001)                 2.073359574551806E+04,      /* I = 29 */
(PID.TID 0000.0001)                 2.074330305575613E+04       /* I = 30 */
(PID.TID 0000.0001)     ;
(PID.TID 0000.0001) dxC =  /* dxC(1,:,1,:) ( units: m ) */
(PID.TID 0000.0001)                 2.071567651695695E+04,      /* J =  1 */
(PID.TID 0000.0001)                 2.109563672137949E+04,      /* J =  2 */
(PID.TID 0000.0001)                 2.149002149497106E+04,      /* J =  3 */
(PID.TID 0000.0001)                 2.189882927482529E+04,      /* J =  4 */
(PID.TID 0000.0001)                 2.232205646389843E+04,      /* J =  5 */
(PID.TID 0000.0001)                 2.275969855854128E+04,      /* J =  6 */
(PID.TID 0000.0001)                 2.321175117362029E+04,      /* J =  7 */
(PID.TID 0000.0001)                 2.367821096276529E+04,      /* J =  8 */
(PID.TID 0000.0001)                 2.415907643347346E+04,      /* J =  9 */
(PID.TID 0000.0001)                 2.465434865814045E+04,      /* J = 10 */
(PID.TID 0000.0001)                 2.516403188365780E+04,      /* J = 11 */
(PID.TID 0000.0001)                 2.568813404310613E+04,      /* J = 12 */
(PID.TID 0000.0001)                 2.622666717399572E+04,      /* J = 13 */
(PID.TID 0000.0001)                 2.677964774799169E+04,      /* J = 14 */
(PID.TID 0000.0001)                 2.734709691757753E+04,      /* J = 15 */
(PID.TID 0000.0001)                 2.792904068517491E+04,      /* J = 16 */
(PID.TID 0000.0001)                 2.852551000032625E+04,      /* J = 17 */
(PID.TID 0000.0001)                 2.913654079081990E+04,      /* J = 18 */
(PID.TID 0000.0001)                 2.976217393306023E+04,      /* J = 19 */
(PID.TID 0000.0001)                 3.040245516699173E+04,      /* J = 20 */
(PID.TID 0000.0001)                 3.105743496108396E+04,      /* J = 21 */
(PID.TID 0000.0001)                 3.172716833208323E+04,      /* J = 22 */
(PID.TID 0000.0001)                 3.241171462422546E+04,      /* J = 23 */
(PID.TID 0000.0001)                 3.311113725244482E+04,      /* J = 24 */
(PID.TID 0000.0001)                 3.382550341391024E+04,      /* J = 25 */
(PID.TID 0000.0001)                 3.455488377140061E+04,      /* J = 26 */
(PID.TID 0000.0001)                 3.529935211332738E+04,      /* J = 27 */
(PID.TID 0000.0001)                 3.605898499520765E+04,      /* J = 28 */
(PID.TID 0000.0001)                 3.683386137397906E+04,      /* J = 29 */
(PID.TID 0000.0001)                 3.762406228407349E+04       /* J = 30 */
(PID.TID 0000.0001)     ;
(PID.TID 0000.0001) dyC =  /* dyC(:,1,:,1) ( units: m ) */
(PID.TID 0000.0001)                 3.678277710845771E+04,      /* I =  1 */
(PID.TID 0000.0001)                 3.685438685866048E+04,      /* I =  2 */
(PID.TID 0000.0001)                 3.692002588020908E+04,      /* I =  3 */
(PID.TID 0000.0001)                 3.697969453541307E+04,      /* I =  4 */
(PID.TID 0000.0001)                 3.703339337607873E+04,      /* I =  5 */
(PID.TID 0000.0001)                 3.708112307814123E+04,      /* I =  6 */
(PID.TID 0000.0001)                 3.712288438364359E+04,      /* I =  7 */
(PID.TID 0000.0001)                 3.715867804995441E+04,      /* I =  8 */
(PID.TID 0000.0001)                 3.718850480589901E+04,      /* I =  9 */
(PID.TID 0000.0001)                 3.721236531452968E+04,      /* I = 10 */
(PID.TID 0000.0001)                 3.723026014246432E+04,      /* I = 11 */
(PID.TID 0000.0001)                 3.724218973548726E+04,      /* I = 12 */
(PID.TID 0000.0001)     2 @  3.724815440020872E+04,             /* I = 13: 14 */
(PID.TID 0000.0001)                 3.724218973548726E+04,      /* I = 15 */
(PID.TID 0000.0001)                 3.723026014246432E+04,      /* I = 16 */
(PID.TID 0000.0001)                 3.721236531452968E+04,      /* I = 17 */
(PID.TID 0000.0001)                 3.718850480589901E+04,      /* I = 18 */
(PID.TID 0000.0001)                 3.715867804995440E+04,      /* I = 19 */
(PID.TID 0000.0001)                 3.712288438364359E+04,      /* I = 20 */
(PID.TID 0000.0001)                 3.708112307814122E+04,      /* I = 21 */
(PID.TID 0000.0001)                 3.703339337607873E+04,      /* I = 22 */
(PID.TID 0000.0001)                 3.697969453541307E+04,      /* I = 23 */
(PID.TID 0000.0001)                 3.692002588020908E+04,      /* I = 24 */
(PID.TID 0000.0001)                 3.685438685866047E+04,      /* I = 25 */
(PID.TID 0000.0001)                 3.678277710845772E+04,      /* I = 26 */
(PID.TID 0000.0001)                 3.670519653011381E+04,      /* I = 27 */
(PID.TID 0000.0001)                 3.662164536844059E+04,      /* I = 28 */
(PID.TID 0000.0001)                 3.653212430257830E+04,      /* I = 29 */
(PID.TID 0000.0001)                 3.643663454523116E+04       /* I = 30 */
(PID.TID 0000.0001)     ;
(PID.TID 0000.0001) dyC =  /* dyC(1,:,1,:) ( units: m ) */
(PID.TID 0000.0001)                 3.678277710845771E+04,      /* J =  1 */
(PID.TID 0000.0001)                 3.723168694115569E+04,      /* J =  2 */
(PID.TID 0000.0001)                 3.767901897410101E+04,      /* J =  3 */
(PID.TID 0000.0001)                 3.812467364657602E+04,      /* J =  4 */
(PID.TID 0000.0001)                 3.856855210935249E+04,      /* J =  5 */
(PID.TID 0000.0001)                 3.901055633269680E+04,      /* J =  6 */
(PID.TID 0000.0001)                 3.945058917911859E+04,      /* J =  7 */
(PID.TID 0000.0001)                 3.988855443472220E+04,      /* J =  8 */
(PID.TID 0000.0001)                 4.032435681898361E+04,      /* J =  9 */
(PID.TID 0000.0001)                 4.075790196435841E+04,      /* J = 10 */
(PID.TID 0000.0001)                 4.118909638222960E+04,      /* J = 11 */
(PID.TID 0000.0001)                 4.161784741043697E+04,      /* J = 12 */
(PID.TID 0000.0001)                 4.204406315499045E+04,      /* J = 13 */
(PID.TID 0000.0001)                 4.246765242091182E+04,      /* J = 14 */
(PID.TID 0000.0001)                 4.288852464034393E+04,      /* J = 15 */
(PID.TID 0000.0001)                 4.330658981118225E+04,      /* J = 16 */
(PID.TID 0000.0001)                 4.372175841431943E+04,      /* J = 17 */
(PID.TID 0000.0001)                 4.413394136293020E+04,      /* J = 18 */
(PID.TID 0000.0001)                 4.454304993440304E+04,      /* J = 19 */
(PID.TID 0000.0001)                 4.494899572325061E+04,      /* J = 20 */
(PID.TID 0000.0001)                 4.535169059286820E+04,      /* J = 21 */
(PID.TID 0000.0001)                 4.575104664412256E+04,      /* J = 22 */
(PID.TID 0000.0001)                 4.614697618947234E+04,      /* J = 23 */
(PID.TID 0000.0001)                 4.653939173844085E+04,      /* J = 24 */
(PID.TID 0000.0001)                 4.692820600744408E+04,      /* J = 25 */
(PID.TID 0000.0001)                 4.731333194957835E+04,      /* J = 26 */
(PID.TID 0000.0001)                 4.769468283927006E+04,      /* J = 27 */
(PID.TID 0000.0001)                 4.807217249390641E+04,      /* J = 28 */
(PID.TID 0000.0001)                 4.844571593362943E+04,      /* J = 29 */
(PID.TID 0000.0001)                 4.881523285497380E+04       /* J = 30 */
(PID.TID 0000.0001)     ;
(PID.TID 0000.0001) dxV =  /* dxV(:,1,:,1) ( units: m ) */
(PID.TID 0000.0001)                 2.053110526075532E+04,      /* I =  1 */
(PID.TID 0000.0001)                 2.052326088418283E+04,      /* I =  2 */
(PID.TID 0000.0001)                 2.051595672244828E+04,      /* I =  3 */
(PID.TID 0000.0001)                 2.050921502797681E+04,      /* I =  4 */
(PID.TID 0000.0001)                 2.050305593886370E+04,      /* I =  5 */
(PID.TID 0000.0001)                 2.049749752783181E+04,      /* I =  6 */
(PID.TID 0000.0001)                 2.049255584793284E+04,      /* I =  7 */
(PID.TID 0000.0001)                 2.048824497292525E+04,      /* I =  8 */
(PID.TID 0000.0001)                 2.048457703515834E+04,      /* I =  9 */
(PID.TID 0000.0001)                 2.048156226915133E+04,      /* I = 10 */
(PID.TID 0000.0001)                 2.047920906551970E+04,      /* I = 11 */
(PID.TID 0000.0001)                 2.047752414469434E+04,      /* I = 12 */
(PID.TID 0000.0001)                 2.047651405696554E+04,      /* I = 13 */
(PID.TID 0000.0001)                 2.047614194664622E+04,      /* I = 14 */
(PID.TID 0000.0001)                 2.047651405696559E+04,      /* I = 15 */
(PID.TID 0000.0001)                 2.047752414469430E+04,      /* I = 16 */
(PID.TID 0000.0001)                 2.047920906551971E+04,      /* I = 17 */
(PID.TID 0000.0001)                 2.048156226915138E+04,      /* I = 18 */
(PID.TID 0000.0001)                 2.048457703515829E+04,      /* I = 19 */
(PID.TID 0000.0001)                 2.048824497292535E+04,      /* I = 20 */
(PID.TID 0000.0001)                 2.049255584793274E+04,      /* I = 21 */
(PID.TID 0000.0001)                 2.049749752783187E+04,      /* I = 22 */
(PID.TID 0000.0001)                 2.050305593886373E+04,      /* I = 23 */
(PID.TID 0000.0001)                 2.050921502797675E+04,      /* I = 24 */
(PID.TID 0000.0001)                 2.051595672244826E+04,      /* I = 25 */
(PID.TID 0000.0001)                 2.052326088418290E+04,      /* I = 26 */
(PID.TID 0000.0001)                 2.053110526075532E+04,      /* I = 27 */
(PID.TID 0000.0001)                 2.053946543494557E+04,      /* I = 28 */
(PID.TID 0000.0001)                 2.054831476098181E+04,      /* I = 29 */
(PID.TID 0000.0001)                 2.055762430839241E+04       /* I = 30 */
(PID.TID 0000.0001)     ;
(PID.TID 0000.0001) dxV =  /* dxV(1,:,1,:) ( units: m ) */
(PID.TID 0000.0001)                 2.053110526075532E+04,      /* J =  1 */
(PID.TID 0000.0001)                 2.090385356266093E+04,      /* J =  2 */
(PID.TID 0000.0001)                 2.129102607314009E+04,      /* J =  3 */
(PID.TID 0000.0001)                 2.169262269996662E+04,      /* J =  4 */
(PID.TID 0000.0001)                 2.210864071595607E+04,      /* J =  5 */
(PID.TID 0000.0001)                 2.253907593617405E+04,      /* J =  6 */
(PID.TID 0000.0001)                 2.298392379458377E+04,      /* J =  7 */
(PID.TID 0000.0001)                 2.344318031700113E+04,      /* J =  8 */
(PID.TID 0000.0001)                 2.391684298864163E+04,      /* J =  9 */
(PID.TID 0000.0001)                 2.440491151699962E+04,      /* J = 10 */
(PID.TID 0000.0001)                 2.490738849171163E+04,      /* J = 11 */
(PID.TID 0000.0001)                 2.542427994477456E+04,      /* J = 12 */
(PID.TID 0000.0001)                 2.595559581485789E+04,      /* J = 13 */
(PID.TID 0000.0001)                 2.650135032062733E+04,      /* J = 14 */
(PID.TID 0000.0001)                 2.706156224833991E+04,      /* J = 15 */
(PID.TID 0000.0001)                 2.763625515890197E+04,      /* J = 16 */
(PID.TID 0000.0001)                 2.822545752042790E+04,      /* J = 17 */
(PID.TID 0000.0001)                 2.882920277162976E+04,      /* J = 18 */
(PID.TID 0000.0001)                 2.944752932187136E+04,      /* J = 19 */
(PID.TID 0000.0001)                 3.008048049319959E+04,      /* J = 20 */
(PID.TID 0000.0001)                 3.072810440966728E+04,      /* J = 21 */
(PID.TID 0000.0001)                 3.139045383903842E+04,      /* J = 22 */
(PID.TID 0000.0001)                 3.206758599174654E+04,      /* J = 23 */
(PID.TID 0000.0001)                 3.275956228156967E+04,      /* J = 24 */
(PID.TID 0000.0001)                 3.346644805244220E+04,      /* J = 25 */
(PID.TID 0000.0001)                 3.418831227550044E+04,      /* J = 26 */
(PID.TID 0000.0001)                 3.492522722017510E+04,      /* J = 27 */
(PID.TID 0000.0001)                 3.567726810399632E+04,      /* J = 28 */
(PID.TID 0000.0001)                 3.644451272859776E+04,      /* J = 29 */
(PID.TID 0000.0001)                 3.722704112152557E+04       /* J = 30 */
(PID.TID 0000.0001)     ;
(PID.TID 0000.0001) dyU =  /* dyU(:,1,:,1) ( units: m ) */
(PID.TID 0000.0001)                 3.674473316658630E+04,      /* I =  1 */
(PID.TID 0000.0001)                 3.681932833792822E+04,      /* I =  2 */
(PID.TID 0000.0001)                 3.688795269313092E+04,      /* I =  3 */
(PID.TID 0000.0001)                 3.695060647275718E+04,      /* I =  4 */
(PID.TID 0000.0001)                 3.700729014250917E+04,      /* I =  5 */
(PID.TID 0000.0001)                 3.705800432398131E+04,      /* I =  6 */
(PID.TID 0000.0001)                 3.710274973294064E+04,      /* I =  7 */
(PID.TID 0000.0001)                 3.714152712500728E+04,      /* I =  8 */
(PID.TID 0000.0001)                 3.717433724834998E+04,      /* I =  9 */
(PID.TID 0000.0001)                 3.720118080314009E+04,      /* I = 10 */
(PID.TID 0000.0001)                 3.722205840764935E+04,      /* I = 11 */
(PID.TID 0000.0001)                 3.723697057073888E+04,      /* I = 12 */
(PID.TID 0000.0001)                 3.724591767054543E+04,      /* I = 13 */
(PID.TID 0000.0001)                 3.724891083990022E+04,      /* I = 14 */
(PID.TID 0000.0001)                 3.724591767054542E+04,      /* I = 15 */
(PID.TID 0000.0001)                 3.723697057073889E+04,      /* I = 16 */
(PID.TID 0000.0001)                 3.722205840764935E+04,      /* I = 17 */
(PID.TID 0000.0001)                 3.720118080314008E+04,      /* I = 18 */
(PID.TID 0000.0001)                 3.717433724834998E+04,      /* I = 19 */
(PID.TID 0000.0001)                 3.714152712500728E+04,      /* I = 20 */
(PID.TID 0000.0001)                 3.710274973294063E+04,      /* I = 21 */
(PID.TID 0000.0001)                 3.705800432398131E+04,      /* I = 22 */
(PID.TID 0000.0001)                 3.700729014250917E+04,      /* I = 23 */
(PID.TID 0000.0001)                 3.695060647275716E+04,      /* I = 24 */
(PID.TID 0000.0001)                 3.688795269313094E+04,      /* I = 25 */
(PID.TID 0000.0001)                 3.681932833792821E+04,      /* I = 26 */
(PID.TID 0000.0001)                 3.674473316658630E+04,      /* I = 27 */
(PID.TID 0000.0001)                 3.666416724104654E+04,      /* I = 28 */
(PID.TID 0000.0001)                 3.657763101146962E+04,      /* I = 29 */
(PID.TID 0000.0001)                 3.648512541079492E+04       /* I = 30 */
(PID.TID 0000.0001)     ;
(PID.TID 0000.0001) dyU =  /* dyU(1,:,1,:) ( units: m ) */
(PID.TID 0000.0001)                 3.674473316658630E+04,      /* J =  1 */
(PID.TID 0000.0001)                 3.719361547538896E+04,      /* J =  2 */
(PID.TID 0000.0001)                 3.764089459751266E+04,      /* J =  3 */
(PID.TID 0000.0001)                 3.808646730382765E+04,      /* J =  4 */
(PID.TID 0000.0001)                 3.853023123895088E+04,      /* J =  5 */
(PID.TID 0000.0001)                 3.897208503739593E+04,      /* J =  6 */
(PID.TID 0000.0001)                 3.941192840112046E+04,      /* J =  7 */
(PID.TID 0000.0001)                 3.984966213263487E+04,      /* J =  8 */
(PID.TID 0000.0001)                 4.028518814419441E+04,      /* J =  9 */
(PID.TID 0000.0001)                 4.071840943468107E+04,      /* J = 10 */
(PID.TID 0000.0001)                 4.114923005120406E+04,      /* J = 11 */
(PID.TID 0000.0001)                 4.157755503103340E+04,      /* J = 12 */
(PID.TID 0000.0001)                 4.200329033666767E+04,      /* J = 13 */
(PID.TID 0000.0001)                 4.242634277960793E+04,      /* J = 14 */
(PID.TID 0000.0001)                 4.284661994092684E+04,      /* J = 15 */
(PID.TID 0000.0001)                 4.326403010205203E+04,      /* J = 16 */
(PID.TID 0000.0001)                 4.367848215462093E+04,      /* J = 17 */
(PID.TID 0000.0001)                 4.408988554208750E+04,      /* J = 18 */
(PID.TID 0000.0001)                 4.449815018464295E+04,      /* J = 19 */
(PID.TID 0000.0001)                 4.490318642518511E+04,      /* J = 20 */
(PID.TID 0000.0001)                 4.530490497491705E+04,      /* J = 21 */
(PID.TID 0000.0001)                 4.570321687598708E+04,      /* J = 22 */
(PID.TID 0000.0001)                 4.609803347024994E+04,      /* J = 23 */
(PID.TID 0000.0001)                 4.648926637992392E+04,      /* J = 24 */
(PID.TID 0000.0001)                 4.687682751321772E+04,      /* J = 25 */
(PID.TID 0000.0001)                 4.726062909013533E+04,      /* J = 26 */
(PID.TID 0000.0001)                 4.764058372401170E+04,      /* J = 27 */
(PID.TID 0000.0001)                 4.801660464021451E+04,      /* J = 28 */
(PID.TID 0000.0001)                 4.838860633247659E+04,      /* J = 29 */
(PID.TID 0000.0001)                 4.875650803021456E+04       /* J = 30 */
(PID.TID 0000.0001)     ;
(PID.TID 0000.0001) rA  =  /* rA (:,1,:,1) ( units: m^2 ) */
(PID.TID 0000.0001)                 7.665113621396177E+08,      /* I =  1 */
(PID.TID 0000.0001)                 7.677029697239892E+08,      /* I =  2 */
(PID.TID 0000.0001)                 7.687913877455838E+08,      /* I =  3 */
(PID.TID 0000.0001)                 7.697775979751738E+08,      /* I =  4 */
(PID.TID 0000.0001)                 7.706625466485583E+08,      /* I =  5 */
(PID.TID 0000.0001)                 7.714470546020026E+08,      /* I =  6 */
(PID.TID 0000.0001)                 7.721318586456149E+08,      /* I =  7 */
(PID.TID 0000.0001)                 7.727176271684608E+08,      /* I =  8 */
(PID.TID 0000.0001)                 7.732049082776864E+08,      /* I =  9 */
(PID.TID 0000.0001)                 7.735941717305043E+08,      /* I = 10 */
(PID.TID 0000.0001)                 7.738858051500469E+08,      /* I = 11 */
(PID.TID 0000.0001)                 7.740801100790358E+08,      /* I = 12 */
(PID.TID 0000.0001)                 7.741766386182301E+08,      /* I = 13 */
(PID.TID 0000.0001)                 7.741766369784317E+08,      /* I = 14 */
(PID.TID 0000.0001)                 7.740801094843833E+08,      /* I = 15 */
(PID.TID 0000.0001)                 7.738858062852919E+08,      /* I = 16 */
(PID.TID 0000.0001)                 7.735941726495122E+08,      /* I = 17 */
(PID.TID 0000.0001)                 7.732049061873938E+08,      /* I = 18 */
(PID.TID 0000.0001)                 7.727176277450933E+08,      /* I = 19 */
(PID.TID 0000.0001)                 7.721318658895597E+08,      /* I = 20 */
(PID.TID 0000.0001)                 7.714470531424019E+08,      /* I = 21 */
(PID.TID 0000.0001)                 7.706625470810328E+08,      /* I = 22 */
(PID.TID 0000.0001)                 7.697776024260553E+08,      /* I = 23 */
(PID.TID 0000.0001)                 7.687913844659867E+08,      /* I = 24 */
(PID.TID 0000.0001)                 7.677029712196296E+08,      /* I = 25 */
(PID.TID 0000.0001)                 7.665113646083255E+08,      /* I = 26 */
(PID.TID 0000.0001)                 7.652154604170089E+08,      /* I = 27 */
(PID.TID 0000.0001)                 7.638140926048064E+08,      /* I = 28 */
(PID.TID 0000.0001)                 7.623059927966076E+08,      /* I = 29 */
(PID.TID 0000.0001)                 7.606898330980235E+08       /* I = 30 */
(PID.TID 0000.0001)     ;
(PID.TID 0000.0001) rA  =  /* rA (1,:,1,:) ( units: m^2 ) */
(PID.TID 0000.0001)                 7.665113621396177E+08,      /* J =  1 */
(PID.TID 0000.0001)                 7.900134359449342E+08,      /* J =  2 */
(PID.TID 0000.0001)                 8.143679155417176E+08,      /* J =  3 */
(PID.TID 0000.0001)                 8.395900636155584E+08,      /* J =  4 */
(PID.TID 0000.0001)                 8.656947784023314E+08,      /* J =  5 */
(PID.TID 0000.0001)                 8.926966010402582E+08,      /* J =  6 */
(PID.TID 0000.0001)                 9.206097737377057E+08,      /* J =  7 */
(PID.TID 0000.0001)                 9.494482582794807E+08,      /* J =  8 */
(PID.TID 0000.0001)                 9.792257431806778E+08,      /* J =  9 */
(PID.TID 0000.0001)                 1.009955679131553E+09,      /* J = 10 */
(PID.TID 0000.0001)                 1.041651296044221E+09,      /* J = 11 */
(PID.TID 0000.0001)                 1.074325614369065E+09,      /* J = 12 */
(PID.TID 0000.0001)                 1.107991467925779E+09,      /* J = 13 */
(PID.TID 0000.0001)                 1.142661498173082E+09,      /* J = 14 */
(PID.TID 0000.0001)                 1.178348167164929E+09,      /* J = 15 */
(PID.TID 0000.0001)                 1.215063762235644E+09,      /* J = 16 */
(PID.TID 0000.0001)                 1.252820414073754E+09,      /* J = 17 */
(PID.TID 0000.0001)                 1.291630043617734E+09,      /* J = 18 */
(PID.TID 0000.0001)                 1.331504416619858E+09,      /* J = 19 */
(PID.TID 0000.0001)                 1.372455096362339E+09,      /* J = 20 */
(PID.TID 0000.0001)                 1.414493440828222E+09,      /* J = 21 */
(PID.TID 0000.0001)                 1.457630613639386E+09,      /* J = 22 */
(PID.TID 0000.0001)                 1.501877517761831E+09,      /* J = 23 */
(PID.TID 0000.0001)                 1.547244834049951E+09,      /* J = 24 */
(PID.TID 0000.0001)                 1.593742963439136E+09,      /* J = 25 */
(PID.TID 0000.0001)                 1.641382020566774E+09,      /* J = 26 */
(PID.TID 0000.0001)                 1.690171807481416E+09,      /* J = 27 */
(PID.TID 0000.0001)                 1.740121820832662E+09,      /* J = 28 */
(PID.TID 0000.0001)                 1.791241246411172E+09,      /* J = 29 */
(PID.TID 0000.0001)                 1.843539059771026E+09       /* J = 30 */
(PID.TID 0000.0001)     ;
(PID.TID 0000.0001) rAw =  /* rAw(:,1,:,1) ( units: m^2 ) */
(PID.TID 0000.0001)                 7.658765213139513E+08,      /* I =  1 */
(PID.TID 0000.0001)                 7.671201328724998E+08,      /* I =  2 */
(PID.TID 0000.0001)                 7.682600121490355E+08,      /* I =  3 */
(PID.TID 0000.0001)                 7.692972101823016E+08,      /* I =  4 */
(PID.TID 0000.0001)                 7.702326756407654E+08,      /* I =  5 */
(PID.TID 0000.0001)                 7.710673044850856E+08,      /* I =  6 */
(PID.TID 0000.0001)                 7.718018764844863E+08,      /* I =  7 */
(PID.TID 0000.0001)                 7.724370884091616E+08,      /* I =  8 */
(PID.TID 0000.0001)                 7.729735468223690E+08,      /* I =  9 */
(PID.TID 0000.0001)                 7.734117650170708E+08,      /* I = 10 */
(PID.TID 0000.0001)                 7.737521718456172E+08,      /* I = 11 */
(PID.TID 0000.0001)                 7.739951054308500E+08,      /* I = 12 */
(PID.TID 0000.0001)                 7.741408739107244E+08,      /* I = 13 */
(PID.TID 0000.0001)                 7.741880730050739E+08,      /* I = 14 */
(PID.TID 0000.0001)                 7.741408710636016E+08,      /* I = 15 */
(PID.TID 0000.0001)                 7.739951071427275E+08,      /* I = 16 */
(PID.TID 0000.0001)                 7.737521718095777E+08,      /* I = 17 */
(PID.TID 0000.0001)                 7.734117675938969E+08,      /* I = 18 */
(PID.TID 0000.0001)                 7.729735457051437E+08,      /* I = 19 */
(PID.TID 0000.0001)                 7.724370889497546E+08,      /* I = 20 */
(PID.TID 0000.0001)                 7.718018793856685E+08,      /* I = 21 */
(PID.TID 0000.0001)                 7.710673053320146E+08,      /* I = 22 */
(PID.TID 0000.0001)                 7.702326816053071E+08,      /* I = 23 */
(PID.TID 0000.0001)                 7.692972065242898E+08,      /* I = 24 */
(PID.TID 0000.0001)                 7.682600115363635E+08,      /* I = 25 */
(PID.TID 0000.0001)                 7.671201363863536E+08,      /* I = 26 */
(PID.TID 0000.0001)                 7.658765213499908E+08,      /* I = 27 */
(PID.TID 0000.0001)                 7.645280345158333E+08,      /* I = 28 */
(PID.TID 0000.0001)                 7.630734673343852E+08,      /* I = 29 */
(PID.TID 0000.0001)                 7.615115062009304E+08       /* I = 30 */
(PID.TID 0000.0001)     ;
(PID.TID 0000.0001) rAw =  /* rAw(1,:,1,:) ( units: m^2 ) */
(PID.TID 0000.0001)                 7.658765213139513E+08,      /* J =  1 */
(PID.TID 0000.0001)                 7.893768970448780E+08,      /* J =  2 */
(PID.TID 0000.0001)                 8.137283914516071E+08,      /* J =  3 */
(PID.TID 0000.0001)                 8.389460603348250E+08,      /* J =  4 */
(PID.TID 0000.0001)                 8.650445848102766E+08,      /* J =  5 */
(PID.TID 0000.0001)                 8.920382782103341E+08,      /* J =  6 */
(PID.TID 0000.0001)                 9.199411445401106E+08,      /* J =  7 */
(PID.TID 0000.0001)                 9.487668893433769E+08,      /* J =  8 */
(PID.TID 0000.0001)                 9.785289545527842E+08,      /* J =  9 */
(PID.TID 0000.0001)                 1.009240515336406E+09,      /* J = 10 */
(PID.TID 0000.0001)                 1.040914522930714E+09,      /* J = 11 */
(PID.TID 0000.0001)                 1.073563715488477E+09,      /* J = 12 */
(PID.TID 0000.0001)                 1.107200612276400E+09,      /* J = 13 */
(PID.TID 0000.0001)                 1.141837554111466E+09,      /* J = 14 */
(PID.TID 0000.0001)                 1.177486672294872E+09,      /* J = 15 */
(PID.TID 0000.0001)                 1.214159933192917E+09,      /* J = 16 */
(PID.TID 0000.0001)                 1.251869095602249E+09,      /* J = 17 */
(PID.TID 0000.0001)                 1.290625742284441E+09,      /* J = 18 */
(PID.TID 0000.0001)                 1.330441258846839E+09,      /* J = 19 */
(PID.TID 0000.0001)                 1.371326820624166E+09,      /* J = 20 */
(PID.TID 0000.0001)                 1.413293399742275E+09,      /* J = 21 */
(PID.TID 0000.0001)                 1.456351737475827E+09,      /* J = 22 */
(PID.TID 0000.0001)                 1.500512320083793E+09,      /* J = 23 */
(PID.TID 0000.0001)                 1.545785394792978E+09,      /* J = 24 */
(PID.TID 0000.0001)                 1.592180902277974E+09,      /* J = 25 */
(PID.TID 0000.0001)                 1.639708504465653E+09,      /* J = 26 */
(PID.TID 0000.0001)                 1.688377519501836E+09,      /* J = 27 */
(PID.TID 0000.0001)                 1.738196956421325E+09,      /* J = 28 */
(PID.TID 0000.0001)                 1.789175499722981E+09,      /* J = 29 */
(PID.TID 0000.0001)                 1.841321602441802E+09       /* J = 30 */
(PID.TID 0000.0001)     ;
(PID.TID 0000.0001) rAs =  /* rAs(:,1,:,1) ( units: m^2 ) */
(PID.TID 0000.0001)                 7.550751050606852E+08,      /* I =  1 */
(PID.TID 0000.0001)                 7.562658447772087E+08,      /* I =  2 */
(PID.TID 0000.0001)                 7.573533970032284E+08,      /* I =  3 */
(PID.TID 0000.0001)                 7.583387692957978E+08,      /* I =  4 */
(PID.TID 0000.0001)                 7.592229121974397E+08,      /* I =  5 */
(PID.TID 0000.0001)                 7.600066705467438E+08,      /* I =  6 */
(PID.TID 0000.0001)                 7.606907923080522E+08,      /* I =  7 */
(PID.TID 0000.0001)                 7.612759532224941E+08,      /* I =  8 */
(PID.TID 0000.0001)                 7.617627129118443E+08,      /* I =  9 */
(PID.TID 0000.0001)                 7.621515550445726E+08,      /* I = 10 */
(PID.TID 0000.0001)                 7.624428588466020E+08,      /* I = 11 */
(PID.TID 0000.0001)                 7.626369483673384E+08,      /* I = 12 */
(PID.TID 0000.0001)                 7.627333738515058E+08,      /* I = 13 */
(PID.TID 0000.0001)                 7.627333728604188E+08,      /* I = 14 */
(PID.TID 0000.0001)                 7.626369508901051E+08,      /* I = 15 */
(PID.TID 0000.0001)                 7.624428655319341E+08,      /* I = 16 */
(PID.TID 0000.0001)                 7.621515526659639E+08,      /* I = 17 */
(PID.TID 0000.0001)                 7.617627197953936E+08,      /* I = 18 */
(PID.TID 0000.0001)                 7.612759510961621E+08,      /* I = 19 */
(PID.TID 0000.0001)                 7.606907969030919E+08,      /* I = 20 */
(PID.TID 0000.0001)                 7.600066694295187E+08,      /* I = 21 */
(PID.TID 0000.0001)                 7.592229103594238E+08,      /* I = 22 */
(PID.TID 0000.0001)                 7.583387684488690E+08,      /* I = 23 */
(PID.TID 0000.0001)                 7.573533915792797E+08,      /* I = 24 */
(PID.TID 0000.0001)                 7.562658465071062E+08,      /* I = 25 */
(PID.TID 0000.0001)                 7.550751079979067E+08,      /* I = 26 */
(PID.TID 0000.0001)                 7.537800585200102E+08,      /* I = 27 */
(PID.TID 0000.0001)                 7.523795064624999E+08,      /* I = 28 */
(PID.TID 0000.0001)                 7.508721675027735E+08,      /* I = 29 */
(PID.TID 0000.0001)                 7.492566800675046E+08       /* I = 30 */
(PID.TID 0000.0001)     ;
(PID.TID 0000.0001) rAs =  /* rAs(1,:,1,:) ( units: m^2 ) */
(PID.TID 0000.0001)                 7.550751050606852E+08,      /* J =  1 */
(PID.TID 0000.0001)                 7.781568160584769E+08,      /* J =  2 */
(PID.TID 0000.0001)                 8.020831616625657E+08,      /* J =  3 */
(PID.TID 0000.0001)                 8.268695937660589E+08,      /* J =  4 */
(PID.TID 0000.0001)                 8.525311818286231E+08,      /* J =  5 */
(PID.TID 0000.0001)                 8.790826547724357E+08,      /* J =  6 */
(PID.TID 0000.0001)                 9.065383887828039E+08,      /* J =  7 */
(PID.TID 0000.0001)                 9.349124897125442E+08,      /* J =  8 */
(PID.TID 0000.0001)                 9.642187819277472E+08,      /* J =  9 */
(PID.TID 0000.0001)                 9.944708240750725E+08,      /* J = 10 */
(PID.TID 0000.0001)                 1.025681954725808E+09,      /* J = 11 */
(PID.TID 0000.0001)                 1.057865313008499E+09,      /* J = 12 */
(PID.TID 0000.0001)                 1.091033805921100E+09,      /* J = 13 */
(PID.TID 0000.0001)                 1.125200178247652E+09,      /* J = 14 */
(PID.TID 0000.0001)                 1.160376979600140E+09,      /* J = 15 */
(PID.TID 0000.0001)                 1.196576586510721E+09,      /* J = 16 */
(PID.TID 0000.0001)                 1.233811208089928E+09,      /* J = 17 */
(PID.TID 0000.0001)                 1.272092866313053E+09,      /* J = 18 */
(PID.TID 0000.0001)                 1.311433405822894E+09,      /* J = 19 */
(PID.TID 0000.0001)                 1.351844507714875E+09,      /* J = 20 */
(PID.TID 0000.0001)                 1.393337606051485E+09,      /* J = 21 */
(PID.TID 0000.0001)                 1.435923987908001E+09,      /* J = 22 */
(PID.TID 0000.0001)                 1.479614675036705E+09,      /* J = 23 */
(PID.TID 0000.0001)                 1.524420466465598E+09,      /* J = 24 */
(PID.TID 0000.0001)                 1.570351910729954E+09,      /* J = 25 */
(PID.TID 0000.0001)                 1.617419255741331E+09,      /* J = 26 */
(PID.TID 0000.0001)                 1.665632470339211E+09,      /* J = 27 */
(PID.TID 0000.0001)                 1.715001205152071E+09,      /* J = 28 */
(PID.TID 0000.0001)                 1.765534790867491E+09,      /* J = 29 */
(PID.TID 0000.0001)                 1.817242347954489E+09       /* J = 30 */
(PID.TID 0000.0001)     ;
(PID.TID 0000.0001) globalArea = /* Integrated horizontal Area (m^2) */
(PID.TID 0000.0001)                 3.580138611494433E+14
(PID.TID 0000.0001)     ;
(PID.TID 0000.0001) hasWetCSCorners = /* Domain contains CS corners (True/False) */
(PID.TID 0000.0001)                   F
(PID.TID 0000.0001)     ;
(PID.TID 0000.0001) // =======================================================
(PID.TID 0000.0001) // End of Model config. summary
(PID.TID 0000.0001) // =======================================================
(PID.TID 0000.0001) 
(PID.TID 0000.0001) == Packages configuration : Check & print summary ==
(PID.TID 0000.0001) 
(PID.TID 0000.0001) KPP_CHECK: #define ALLOW_KPP
(PID.TID 0000.0001) GAD_CHECK: #define ALLOW_GENERIC_ADVDIFF
(PID.TID 0000.0001) // =======================================================
(PID.TID 0000.0001) // Check Model config. (CONFIG_CHECK):
(PID.TID 0000.0001) // CONFIG_CHECK : Normal End
(PID.TID 0000.0001) // =======================================================
(PID.TID 0000.0001) 
(PID.TID 0000.0001)  MDS_READ_META: opening file: pickup.0000000001.meta
(PID.TID 0000.0001)  nRecords = 403 ; filePrec =  64 ; fileIter =     26280
(PID.TID 0000.0001)     nDims =   2 , dims:
(PID.TID 0000.0001)    1:  90   1  90
(PID.TID 0000.0001)    2:1170   11170
(PID.TID 0000.0001)     nFlds =  11 , nFl3D =   8 , fields:
(PID.TID 0000.0001)  >Uvel    < >Vvel    < >Theta   < >Salt    < >GuNm1   < >GuNm2   < >GvNm1   < >GvNm2   < >EtaN    < >dEtaHdt < >EtaH    <
(PID.TID 0000.0001) missingVal=  1.00000000000000E+00 ; nTimRec =   1 , timeList:
(PID.TID 0000.0001)   9.460800000000E+07
(PID.TID 0000.0001) READ_MFLDS_3D_RL: read field: "Uvel    ", #   1 in fldList, rec=   1
(PID.TID 0000.0001)  MDS_READ_FIELD: opening global file: pickup.0000000001.data
(PID.TID 0000.0001) READ_MFLDS_3D_RL: read field: "Vvel    ", #   2 in fldList, rec=   2
(PID.TID 0000.0001)  MDS_READ_FIELD: opening global file: pickup.0000000001.data
(PID.TID 0000.0001) READ_MFLDS_3D_RL: read field: "Theta   ", #   3 in fldList, rec=   3
(PID.TID 0000.0001)  MDS_READ_FIELD: opening global file: pickup.0000000001.data
(PID.TID 0000.0001) READ_MFLDS_3D_RL: read field: "Salt    ", #   4 in fldList, rec=   4
(PID.TID 0000.0001)  MDS_READ_FIELD: opening global file: pickup.0000000001.data
(PID.TID 0000.0001) READ_MFLDS_3D_RL: read field: "GuNm1   ", #   5 in fldList, rec=   5
(PID.TID 0000.0001)  MDS_READ_FIELD: opening global file: pickup.0000000001.data
(PID.TID 0000.0001) READ_MFLDS_3D_RL: read field: "GvNm1   ", #   7 in fldList, rec=   7
(PID.TID 0000.0001)  MDS_READ_FIELD: opening global file: pickup.0000000001.data
(PID.TID 0000.0001) READ_MFLDS_3D_RL: read field: "EtaN    ", #   9 in fldList, rec= 401
(PID.TID 0000.0001)  MDS_READ_FIELD: opening global file: pickup.0000000001.data
(PID.TID 0000.0001) READ_MFLDS_3D_RL: read field: "dEtaHdt ", #  10 in fldList, rec= 402
(PID.TID 0000.0001)  MDS_READ_FIELD: opening global file: pickup.0000000001.data
(PID.TID 0000.0001) READ_MFLDS_CHECK: - normal end ; reset MFLDS file-name: pickup.0000000001
(PID.TID 0000.0001) // =======================================================
(PID.TID 0000.0001) // Model current state
(PID.TID 0000.0001) // =======================================================
(PID.TID 0000.0001) 
(PID.TID 0000.0001) SOLVE_FOR_PRESSURE: putPmEinXvector =    F
 cg2d: Sum(rhs),rhsMax =   4.27559804336911E+01  3.11541392263891E+00
 cg2d: Sum(rhs),rhsMax =   2.72937868044639E+01  4.83505468990148E+00
 cg2d: Sum(rhs),rhsMax =   2.64161337451415E+01  4.93851330533466E+00
 cg2d: Sum(rhs),rhsMax =   4.16446043493324E+01  3.10399711381404E+00
 cg2d: Sum(rhs),rhsMax =   3.33776482527237E+01  3.84720973171141E+00
 cg2d: Sum(rhs),rhsMax =   3.70424117770240E+01  3.44974836774775E+00
 cg2d: Sum(rhs),rhsMax =   3.59559331554840E+01  3.54128564897318E+00
(PID.TID 0000.0001)      cg2d_init_res =   2.90017474796495E+00
(PID.TID 0000.0001)      cg2d_iters(min,last) =      -1      26
(PID.TID 0000.0001)      cg2d_last_res =   6.66768278831375E-06
(PID.TID 0000.0001) // =======================================================
(PID.TID 0000.0001) // Begin MONITOR dynamic field statistics
(PID.TID 0000.0001) // =======================================================
(PID.TID 0000.0001) %MON time_tsnumber                =                     8
(PID.TID 0000.0001) %MON time_secondsf                =   7.2000000000000E+03
(PID.TID 0000.0001) %MON dynstat_eta_max              =   1.5241562850252E+00
(PID.TID 0000.0001) %MON dynstat_eta_min              =  -4.5719015230657E+00
(PID.TID 0000.0001) %MON dynstat_eta_mean             =  -1.4500302635410E-03
(PID.TID 0000.0001) %MON dynstat_eta_sd               =   7.4104674549528E-01
(PID.TID 0000.0001) %MON dynstat_eta_del2             =   2.7108968852528E-04
(PID.TID 0000.0001) %MON dynstat_uvel_max             =   1.1283246949864E+00
(PID.TID 0000.0001) %MON dynstat_uvel_min             =  -1.1762348899227E+00
(PID.TID 0000.0001) %MON dynstat_uvel_mean            =   2.1021080885208E-03
(PID.TID 0000.0001) %MON dynstat_uvel_sd              =   2.4071066045674E-02
(PID.TID 0000.0001) %MON dynstat_uvel_del2            =   2.7693124094977E-05
(PID.TID 0000.0001) %MON dynstat_vvel_max             =   8.4379502994932E-01
(PID.TID 0000.0001) %MON dynstat_vvel_min             =  -1.1051481035510E+00
(PID.TID 0000.0001) %MON dynstat_vvel_mean            =   1.1477741317330E-03
(PID.TID 0000.0001) %MON dynstat_vvel_sd              =   2.5190108329185E-02
(PID.TID 0000.0001) %MON dynstat_vvel_del2            =   2.6946894116884E-05
(PID.TID 0000.0001) %MON dynstat_wvel_max             =   1.4966719101712E-02
(PID.TID 0000.0001) %MON dynstat_wvel_min             =  -1.2745138818521E-02
(PID.TID 0000.0001) %MON dynstat_wvel_mean            =  -2.0819714773995E-22
(PID.TID 0000.0001) %MON dynstat_wvel_sd              =   3.1196591047896E-04
(PID.TID 0000.0001) %MON dynstat_wvel_del2            =   6.5514816741935E-07
(PID.TID 0000.0001) %MON dynstat_theta_max            =   3.2662017051096E+01
(PID.TID 0000.0001) %MON dynstat_theta_min            =  -2.7357668940664E+00
(PID.TID 0000.0001) %MON dynstat_theta_mean           =   3.5901847874779E+00
(PID.TID 0000.0001) %MON dynstat_theta_sd             =   4.4236080863544E+00
(PID.TID 0000.0001) %MON dynstat_theta_del2           =   2.8686093859461E-04
(PID.TID 0000.0001) %MON dynstat_salt_max             =   4.0711525063781E+01
(PID.TID 0000.0001) %MON dynstat_salt_min             =   1.8852623101936E+01
(PID.TID 0000.0001) %MON dynstat_salt_mean            =   3.4725637171094E+01
(PID.TID 0000.0001) %MON dynstat_salt_sd              =   3.6841507971338E-01
(PID.TID 0000.0001) %MON dynstat_salt_del2            =   1.2385531963848E-04
(PID.TID 0000.0001) %MON dynstat_sst_max              =   3.2654538054026E+01
(PID.TID 0000.0001) %MON dynstat_sst_min              =  -2.7357668940664E+00
(PID.TID 0000.0001) %MON dynstat_sst_mean             =   1.8271086029619E+01
(PID.TID 0000.0001) %MON dynstat_sst_sd               =   1.0219453445428E+01
(PID.TID 0000.0001) %MON dynstat_sst_del2             =   2.6451035451440E-03
(PID.TID 0000.0001) %MON dynstat_sss_max              =   3.9661587985747E+01
(PID.TID 0000.0001) %MON dynstat_sss_min              =   1.8907330041101E+01
(PID.TID 0000.0001) %MON dynstat_sss_mean             =   3.4817349695124E+01
(PID.TID 0000.0001) %MON dynstat_sss_sd               =   1.0089722364535E+00
(PID.TID 0000.0001) %MON dynstat_sss_del2             =   1.9877038177081E-03
(PID.TID 0000.0001) %MON forcing_qnet_max             =   1.7486401367188E+03
(PID.TID 0000.0001) %MON forcing_qnet_min             =  -8.4161594803455E+03
(PID.TID 0000.0001) %MON forcing_qnet_mean            =  -1.0442504387493E+02
(PID.TID 0000.0001) %MON forcing_qnet_sd              =   4.0903076130483E+02
(PID.TID 0000.0001) %MON forcing_qnet_del2            =   1.7236377278335E+00
(PID.TID 0000.0001) %MON forcing_qsw_max              =   0.0000000000000E+00
(PID.TID 0000.0001) %MON forcing_qsw_min              =  -4.4034331804041E+02
(PID.TID 0000.0001) %MON forcing_qsw_mean             =  -9.0095671077186E+01
(PID.TID 0000.0001) %MON forcing_qsw_sd               =   1.2226427072158E+02
(PID.TID 0000.0001) %MON forcing_qsw_del2             =   2.0251573534133E-01
(PID.TID 0000.0001) %MON forcing_empmr_max            =   3.8347712252289E-03
(PID.TID 0000.0001) %MON forcing_empmr_min            =  -8.4224022924900E-02
(PID.TID 0000.0001) %MON forcing_empmr_mean           =  -5.1595232301953E-06
(PID.TID 0000.0001) %MON forcing_empmr_sd             =   3.8218539417768E-04
(PID.TID 0000.0001) %MON forcing_empmr_del2           =   2.6362577905966E-06
(PID.TID 0000.0001) %MON forcing_fu_max               =   1.3598668575287E+00
(PID.TID 0000.0001) %MON forcing_fu_min               =  -1.3339881300926E+00
(PID.TID 0000.0001) %MON forcing_fu_mean              =   1.2976504249952E-02
(PID.TID 0000.0001) %MON forcing_fu_sd                =   1.1807890480144E-01
(PID.TID 0000.0001) %MON forcing_fu_del2              =   1.7465918575293E-04
(PID.TID 0000.0001) %MON forcing_fv_max               =   8.9342001080513E-01
(PID.TID 0000.0001) %MON forcing_fv_min               =  -8.2030734419822E-01
(PID.TID 0000.0001) %MON forcing_fv_mean              =  -5.4791411531129E-03
(PID.TID 0000.0001) %MON forcing_fv_sd                =   1.1462928590036E-01
(PID.TID 0000.0001) %MON forcing_fv_del2              =   1.3841836873921E-04
(PID.TID 0000.0001) %MON trAdv_CFL_u_max              =   2.3872138498181E-02
(PID.TID 0000.0001) %MON trAdv_CFL_v_max              =   2.4081170188542E-02
(PID.TID 0000.0001) %MON trAdv_CFL_w_max              =   1.1358646895084E-01
(PID.TID 0000.0001) %MON advcfl_uvel_max              =   2.3733735655361E-02
(PID.TID 0000.0001) %MON advcfl_vvel_max              =   2.4218679490057E-02
(PID.TID 0000.0001) %MON advcfl_wvel_max              =   2.2717293790168E-01
(PID.TID 0000.0001) %MON advcfl_W_hf_max              =   1.1052050929337E-01
(PID.TID 0000.0001) %MON pe_b_mean                    =   7.2235114488046E-04
(PID.TID 0000.0001) %MON ke_max                       =   7.4365291559529E-01
(PID.TID 0000.0001) %MON ke_mean                      =   5.8813123412680E-04
(PID.TID 0000.0001) %MON ke_vol                       =   1.3350064351420E+18
(PID.TID 0000.0001) %MON vort_r_min                   =  -5.2869189359293E-05
(PID.TID 0000.0001) %MON vort_r_max                   =   3.6820358826322E-05
(PID.TID 0000.0001) %MON vort_a_mean                  =  -1.9725213241026E-05
(PID.TID 0000.0001) %MON vort_a_sd                    =   7.4538291175322E-05
(PID.TID 0000.0001) %MON vort_p_mean                  =  -2.1669263470803E-05
(PID.TID 0000.0001) %MON vort_p_sd                    =   9.3604943616917E-05
(PID.TID 0000.0001) %MON surfExpan_theta_mean         =   8.1748235271316E-06
(PID.TID 0000.0001) %MON surfExpan_salt_mean          =  -1.3839720994618E-07
(PID.TID 0000.0001) // =======================================================
(PID.TID 0000.0001) // End MONITOR dynamic field statistics
(PID.TID 0000.0001) // =======================================================
 cg2d: Sum(rhs),rhsMax =   3.75034496670753E+01  3.38669462339518E+00
 cg2d: Sum(rhs),rhsMax =   3.79586774260626E+01  3.34104283729793E+00
 cg2d: Sum(rhs),rhsMax =   3.59478989248944E+01  3.52509637664497E+00
 cg2d: Sum(rhs),rhsMax =   3.71528690593416E+01  3.40958453576395E+00
 cg2d: Sum(rhs),rhsMax =   3.63977347073053E+01  3.48021038641080E+00
 cg2d: Sum(rhs),rhsMax =   3.60491319251830E+01  3.51447256044839E+00
 cg2d: Sum(rhs),rhsMax =   3.57654257197782E+01  3.54341088268632E+00
 cg2d: Sum(rhs),rhsMax =   3.55059669219661E+01  3.57031041376628E+00
(PID.TID 0000.0001)      cg2d_init_res =   1.62471574790786E+00
(PID.TID 0000.0001)      cg2d_iters(min,last) =      -1      25
(PID.TID 0000.0001)      cg2d_last_res =   7.25027588469456E-06
(PID.TID 0000.0001) // =======================================================
(PID.TID 0000.0001) // Begin MONITOR dynamic field statistics
(PID.TID 0000.0001) // =======================================================
(PID.TID 0000.0001) %MON time_tsnumber                =                    16
(PID.TID 0000.0001) %MON time_secondsf                =   1.4400000000000E+04
(PID.TID 0000.0001) %MON dynstat_eta_max              =   1.3357369661766E+00
(PID.TID 0000.0001) %MON dynstat_eta_min              =  -4.1415241605650E+00
(PID.TID 0000.0001) %MON dynstat_eta_mean             =  -1.4436199111554E-03
(PID.TID 0000.0001) %MON dynstat_eta_sd               =   7.3495633151371E-01
(PID.TID 0000.0001) %MON dynstat_eta_del2             =   2.4825310080996E-04
(PID.TID 0000.0001) %MON dynstat_uvel_max             =   9.5994249050301E-01
(PID.TID 0000.0001) %MON dynstat_uvel_min             =  -1.3693880274183E+00
(PID.TID 0000.0001) %MON dynstat_uvel_mean            =   2.2542215925408E-03
(PID.TID 0000.0001) %MON dynstat_uvel_sd              =   3.0007464894974E-02
(PID.TID 0000.0001) %MON dynstat_uvel_del2            =   4.6524514776946E-05
(PID.TID 0000.0001) %MON dynstat_vvel_max             =   1.1456199638366E+00
(PID.TID 0000.0001) %MON dynstat_vvel_min             =  -1.3297653194966E+00
(PID.TID 0000.0001) %MON dynstat_vvel_mean            =   8.1348486487796E-04
(PID.TID 0000.0001) %MON dynstat_vvel_sd              =   2.9903028642510E-02
(PID.TID 0000.0001) %MON dynstat_vvel_del2            =   4.2977239103005E-05
(PID.TID 0000.0001) %MON dynstat_wvel_max             =   2.6875281986880E-02
(PID.TID 0000.0001) %MON dynstat_wvel_min             =  -2.4240417784544E-02
(PID.TID 0000.0001) %MON dynstat_wvel_mean            =   1.8506413132440E-21
(PID.TID 0000.0001) %MON dynstat_wvel_sd              =   6.2038135209677E-04
(PID.TID 0000.0001) %MON dynstat_wvel_del2            =   1.3002087407467E-06
(PID.TID 0000.0001) %MON dynstat_theta_max            =   3.2662928590250E+01
(PID.TID 0000.0001) %MON dynstat_theta_min            =  -2.7286338692597E+00
(PID.TID 0000.0001) %MON dynstat_theta_mean           =   3.5902131682619E+00
(PID.TID 0000.0001) %MON dynstat_theta_sd             =   4.4236426765823E+00
(PID.TID 0000.0001) %MON dynstat_theta_del2           =   2.8295564966836E-04
(PID.TID 0000.0001) %MON dynstat_salt_max             =   4.0711518043488E+01
(PID.TID 0000.0001) %MON dynstat_salt_min             =   1.8857725675229E+01
(PID.TID 0000.0001) %MON dynstat_salt_mean            =   3.4725577307089E+01
(PID.TID 0000.0001) %MON dynstat_salt_sd              =   3.6821833563344E-01
(PID.TID 0000.0001) %MON dynstat_salt_del2            =   1.1951289599061E-04
(PID.TID 0000.0001) %MON dynstat_sst_max              =   3.2648112092989E+01
(PID.TID 0000.0001) %MON dynstat_sst_min              =  -2.7286338692597E+00
(PID.TID 0000.0001) %MON dynstat_sst_mean             =   1.8276837448827E+01
(PID.TID 0000.0001) %MON dynstat_sst_sd               =   1.0220216114296E+01
(PID.TID 0000.0001) %MON dynstat_sst_del2             =   2.5731030576872E-03
(PID.TID 0000.0001) %MON dynstat_sss_max              =   3.9608546346643E+01
(PID.TID 0000.0001) %MON dynstat_sss_min              =   1.8901867191757E+01
(PID.TID 0000.0001) %MON dynstat_sss_mean             =   3.4797195974171E+01
(PID.TID 0000.0001) %MON dynstat_sss_sd               =   9.9233570067439E-01
(PID.TID 0000.0001) %MON dynstat_sss_del2             =   1.9545877174815E-03
(PID.TID 0000.0001) %MON forcing_qnet_max             =   2.0694047848071E+03
(PID.TID 0000.0001) %MON forcing_qnet_min             =  -5.5543903607115E+03
(PID.TID 0000.0001) %MON forcing_qnet_mean            =  -6.3752468457145E+01
(PID.TID 0000.0001) %MON forcing_qnet_sd              =   2.9909638625645E+02
(PID.TID 0000.0001) %MON forcing_qnet_del2            =   1.2035899227802E+00
(PID.TID 0000.0001) %MON forcing_qsw_max              =   0.0000000000000E+00
(PID.TID 0000.0001) %MON forcing_qsw_min              =  -4.4429071660654E+02
(PID.TID 0000.0001) %MON forcing_qsw_mean             =  -8.6166098979436E+01
(PID.TID 0000.0001) %MON forcing_qsw_sd               =   1.2109004569201E+02
(PID.TID 0000.0001) %MON forcing_qsw_del2             =   1.9750422222778E-01
(PID.TID 0000.0001) %MON forcing_empmr_max            =   4.6114097349346E-03
(PID.TID 0000.0001) %MON forcing_empmr_min            =  -6.3618227839470E-02
(PID.TID 0000.0001) %MON forcing_empmr_mean           =   4.0347112529257E-07
(PID.TID 0000.0001) %MON forcing_empmr_sd             =   3.1177674289965E-04
(PID.TID 0000.0001) %MON forcing_empmr_del2           =   2.2719030143313E-06
(PID.TID 0000.0001) %MON forcing_fu_max               =   1.2924254536629E+00
(PID.TID 0000.0001) %MON forcing_fu_min               =  -1.2138983607292E+00
(PID.TID 0000.0001) %MON forcing_fu_mean              =   1.2615802306455E-02
(PID.TID 0000.0001) %MON forcing_fu_sd                =   1.1476424249938E-01
(PID.TID 0000.0001) %MON forcing_fu_del2              =   1.6721394674328E-04
(PID.TID 0000.0001) %MON forcing_fv_max               =   7.8415942192078E-01
(PID.TID 0000.0001) %MON forcing_fv_min               =  -7.5805351138115E-01
(PID.TID 0000.0001) %MON forcing_fv_mean              =  -5.1770443169444E-03
(PID.TID 0000.0001) %MON forcing_fv_sd                =   1.0918834049047E-01
(PID.TID 0000.0001) %MON forcing_fv_del2              =   1.3195150127427E-04
(PID.TID 0000.0001) %MON trAdv_CFL_u_max              =   2.8993049454989E-02
(PID.TID 0000.0001) %MON trAdv_CFL_v_max              =   2.8975577903746E-02
(PID.TID 0000.0001) %MON trAdv_CFL_w_max              =   1.9713806869041E-01
(PID.TID 0000.0001) %MON advcfl_uvel_max              =   2.8824957247124E-02
(PID.TID 0000.0001) %MON advcfl_vvel_max              =   2.9141035456155E-02
(PID.TID 0000.0001) %MON advcfl_wvel_max              =   2.2294819617800E-01
(PID.TID 0000.0001) %MON advcfl_W_hf_max              =   2.1124296909545E-01
(PID.TID 0000.0001) %MON pe_b_mean                    =   7.1052643574315E-04
(PID.TID 0000.0001) %MON ke_max                       =   9.2800164770697E-01
(PID.TID 0000.0001) %MON ke_mean                      =   8.6812841951684E-04
(PID.TID 0000.0001) %MON ke_vol                       =   1.3350064351420E+18
(PID.TID 0000.0001) %MON vort_r_min                   =  -6.3909503522095E-05
(PID.TID 0000.0001) %MON vort_r_max                   =   5.7655523244134E-05
(PID.TID 0000.0001) %MON vort_a_mean                  =  -1.9725213241026E-05
(PID.TID 0000.0001) %MON vort_a_sd                    =   7.4538621051231E-05
(PID.TID 0000.0001) %MON vort_p_mean                  =  -2.1669263470803E-05
(PID.TID 0000.0001) %MON vort_p_sd                    =   9.3610013308706E-05
(PID.TID 0000.0001) %MON surfExpan_theta_mean         =   1.4152879212521E-06
(PID.TID 0000.0001) %MON surfExpan_salt_mean          =  -5.7081856415451E-07
(PID.TID 0000.0001) // =======================================================
(PID.TID 0000.0001) // End MONITOR dynamic field statistics
(PID.TID 0000.0001) // =======================================================
 cg2d: Sum(rhs),rhsMax =   3.57419005190980E+01  3.54736346140152E+00
 cg2d: Sum(rhs),rhsMax =   3.59997705766641E+01  3.52211690779577E+00
 cg2d: Sum(rhs),rhsMax =   3.64027676010680E+01  3.48278865069278E+00
 cg2d: Sum(rhs),rhsMax =   3.66646040316446E+01  3.45705043864095E+00
 cg2d: Sum(rhs),rhsMax =   3.67561392110015E+01  3.44677191877841E+00
 cg2d: Sum(rhs),rhsMax =   3.63990474059390E+01  3.47807126408292E+00
 cg2d: Sum(rhs),rhsMax =   3.48727986097376E+01  3.62722172909342E+00
 cg2d: Sum(rhs),rhsMax =   3.35527785905288E+01  3.76617249523185E+00
(PID.TID 0000.0001)      cg2d_init_res =   1.20530829122355E+00
(PID.TID 0000.0001)      cg2d_iters(min,last) =      -1      24
(PID.TID 0000.0001)      cg2d_last_res =   8.37649776249749E-06
(PID.TID 0000.0001) // =======================================================
(PID.TID 0000.0001) // Begin MONITOR dynamic field statistics
(PID.TID 0000.0001) // =======================================================
(PID.TID 0000.0001) %MON time_tsnumber                =                    24
(PID.TID 0000.0001) %MON time_secondsf                =   2.1600000000000E+04
(PID.TID 0000.0001) %MON dynstat_eta_max              =   1.1958974458007E+00
(PID.TID 0000.0001) %MON dynstat_eta_min              =  -4.8976474781741E+00
(PID.TID 0000.0001) %MON dynstat_eta_mean             =  -1.4390445565167E-03
(PID.TID 0000.0001) %MON dynstat_eta_sd               =   7.3049252445303E-01
(PID.TID 0000.0001) %MON dynstat_eta_del2             =   2.3055423838034E-04
(PID.TID 0000.0001) %MON dynstat_uvel_max             =   1.0461685154688E+00
(PID.TID 0000.0001) %MON dynstat_uvel_min             =  -1.5226583875514E+00
(PID.TID 0000.0001) %MON dynstat_uvel_mean            =   2.1188882442502E-03
(PID.TID 0000.0001) %MON dynstat_uvel_sd              =   3.4625492354360E-02
(PID.TID 0000.0001) %MON dynstat_uvel_del2            =   6.1084717724342E-05
(PID.TID 0000.0001) %MON dynstat_vvel_max             =   1.2128566753628E+00
(PID.TID 0000.0001) %MON dynstat_vvel_min             =  -1.3495257639102E+00
(PID.TID 0000.0001) %MON dynstat_vvel_mean            =   9.0064872723811E-04
(PID.TID 0000.0001) %MON dynstat_vvel_sd              =   3.5795368134558E-02
(PID.TID 0000.0001) %MON dynstat_vvel_del2            =   5.6788498040408E-05
(PID.TID 0000.0001) %MON dynstat_wvel_max             =   2.9518854792681E-02
(PID.TID 0000.0001) %MON dynstat_wvel_min             =  -2.6958879650347E-02
(PID.TID 0000.0001) %MON dynstat_wvel_mean            =  -5.2974607591610E-21
(PID.TID 0000.0001) %MON dynstat_wvel_sd              =   7.5796473231921E-04
(PID.TID 0000.0001) %MON dynstat_wvel_del2            =   1.5979336311333E-06
(PID.TID 0000.0001) %MON dynstat_theta_max            =   3.2665000957771E+01
(PID.TID 0000.0001) %MON dynstat_theta_min            =  -2.7203649406494E+00
(PID.TID 0000.0001) %MON dynstat_theta_mean           =   3.5902365554893E+00
(PID.TID 0000.0001) %MON dynstat_theta_sd             =   4.4236706847434E+00
(PID.TID 0000.0001) %MON dynstat_theta_del2           =   2.7685523132493E-04
(PID.TID 0000.0001) %MON dynstat_salt_max             =   4.0711511938542E+01
(PID.TID 0000.0001) %MON dynstat_salt_min             =   1.8859164447051E+01
(PID.TID 0000.0001) %MON dynstat_salt_mean            =   3.4725540581461E+01
(PID.TID 0000.0001) %MON dynstat_salt_sd              =   3.6808682370760E-01
(PID.TID 0000.0001) %MON dynstat_salt_del2            =   1.1591867330000E-04
(PID.TID 0000.0001) %MON dynstat_sst_max              =   3.2643989023913E+01
(PID.TID 0000.0001) %MON dynstat_sst_min              =  -2.7203649406494E+00
(PID.TID 0000.0001) %MON dynstat_sst_mean             =   1.8278149549634E+01
(PID.TID 0000.0001) %MON dynstat_sst_sd               =   1.0222338918619E+01
(PID.TID 0000.0001) %MON dynstat_sst_del2             =   2.4807143792741E-03
(PID.TID 0000.0001) %MON dynstat_sss_max              =   3.9558516700206E+01
(PID.TID 0000.0001) %MON dynstat_sss_min              =   1.8898740597288E+01
(PID.TID 0000.0001) %MON dynstat_sss_mean             =   3.4787649767181E+01
(PID.TID 0000.0001) %MON dynstat_sss_sd               =   9.8397598237577E-01
(PID.TID 0000.0001) %MON dynstat_sss_del2             =   1.9036387743701E-03
(PID.TID 0000.0001) %MON forcing_qnet_max             =   3.4254679690141E+03
(PID.TID 0000.0001) %MON forcing_qnet_min             =  -5.9025370449676E+03
(PID.TID 0000.0001) %MON forcing_qnet_mean            =  -2.7353983866317E+01
(PID.TID 0000.0001) %MON forcing_qnet_sd              =   2.5415791284688E+02
(PID.TID 0000.0001) %MON forcing_qnet_del2            =   1.2196732667045E+00
(PID.TID 0000.0001) %MON forcing_qsw_max              =   0.0000000000000E+00
(PID.TID 0000.0001) %MON forcing_qsw_min              =  -4.5317329967442E+02
(PID.TID 0000.0001) %MON forcing_qsw_mean             =  -7.5182459385210E+01
(PID.TID 0000.0001) %MON forcing_qsw_sd               =   1.0982837667891E+02
(PID.TID 0000.0001) %MON forcing_qsw_del2             =   1.8557611416870E-01
(PID.TID 0000.0001) %MON forcing_empmr_max            =   5.9722224250436E-03
(PID.TID 0000.0001) %MON forcing_empmr_min            =  -6.4566425979137E-02
(PID.TID 0000.0001) %MON forcing_empmr_mean           =  -1.7690078247602E-06
(PID.TID 0000.0001) %MON forcing_empmr_sd             =   2.9670731741817E-04
(PID.TID 0000.0001) %MON forcing_empmr_del2           =   2.2750808231882E-06
(PID.TID 0000.0001) %MON forcing_fu_max               =   1.1560401320457E+00
(PID.TID 0000.0001) %MON forcing_fu_min               =  -1.0606994628906E+00
(PID.TID 0000.0001) %MON forcing_fu_mean              =   1.2439785700992E-02
(PID.TID 0000.0001) %MON forcing_fu_sd                =   1.1062411899777E-01
(PID.TID 0000.0001) %MON forcing_fu_del2              =   1.6132315026030E-04
(PID.TID 0000.0001) %MON forcing_fv_max               =   7.7390611171722E-01
(PID.TID 0000.0001) %MON forcing_fv_min               =  -7.0363744929432E-01
(PID.TID 0000.0001) %MON forcing_fv_mean              =  -5.8632819973048E-03
(PID.TID 0000.0001) %MON forcing_fv_sd                =   1.0618308858462E-01
(PID.TID 0000.0001) %MON forcing_fv_del2              =   1.2812823715973E-04
(PID.TID 0000.0001) %MON trAdv_CFL_u_max              =   2.9540416438113E-02
(PID.TID 0000.0001) %MON trAdv_CFL_v_max              =   2.9406157862574E-02
(PID.TID 0000.0001) %MON trAdv_CFL_w_max              =   2.3630826777488E-01
(PID.TID 0000.0001) %MON advcfl_uvel_max              =   2.9457805983018E-02
(PID.TID 0000.0001) %MON advcfl_vvel_max              =   2.9574074130606E-02
(PID.TID 0000.0001) %MON advcfl_wvel_max              =   2.4584361213562E-01
(PID.TID 0000.0001) %MON advcfl_W_hf_max              =   2.5676999489720E-01
(PID.TID 0000.0001) %MON pe_b_mean                    =   7.0192180078338E-04
(PID.TID 0000.0001) %MON ke_max                       =   1.1740375041514E+00
(PID.TID 0000.0001) %MON ke_mean                      =   1.1985072850162E-03
(PID.TID 0000.0001) %MON ke_vol                       =   1.3350064351420E+18
(PID.TID 0000.0001) %MON vort_r_min                   =  -6.4770063695939E-05
(PID.TID 0000.0001) %MON vort_r_max                   =   6.2831995195555E-05
(PID.TID 0000.0001) %MON vort_a_mean                  =  -1.9725213241026E-05
(PID.TID 0000.0001) %MON vort_a_sd                    =   7.4539511337392E-05
(PID.TID 0000.0001) %MON vort_p_mean                  =  -2.1669263470803E-05
(PID.TID 0000.0001) %MON vort_p_sd                    =   9.3617390737837E-05
(PID.TID 0000.0001) %MON surfExpan_theta_mean         =  -2.5561547780745E-06
(PID.TID 0000.0001) %MON surfExpan_salt_mean          =  -9.5210166851369E-07
(PID.TID 0000.0001) // =======================================================
(PID.TID 0000.0001) // End MONITOR dynamic field statistics
(PID.TID 0000.0001) // =======================================================
 cg2d: Sum(rhs),rhsMax =   3.23794764715485E+01  3.89790413645338E+00
 cg2d: Sum(rhs),rhsMax =   3.13692108931443E+01  4.01789994174790E+00
 cg2d: Sum(rhs),rhsMax =   3.05245294214576E+01  4.12305435996230E+00
 cg2d: Sum(rhs),rhsMax =   2.98442058079606E+01  4.21024905737583E+00
 cg2d: Sum(rhs),rhsMax =   2.93045135337727E+01  4.28023489860797E+00
 cg2d: Sum(rhs),rhsMax =   2.88552803745536E+01  4.33785974424583E+00
 cg2d: Sum(rhs),rhsMax =   2.84507649075822E+01  4.38872013784044E+00
 cg2d: Sum(rhs),rhsMax =   2.80623657406911E+01  4.43679384082413E+00
(PID.TID 0000.0001)      cg2d_init_res =   9.15449107111894E-01
(PID.TID 0000.0001)      cg2d_iters(min,last) =      -1      24
(PID.TID 0000.0001)      cg2d_last_res =   7.16273020684611E-06
(PID.TID 0000.0001) // =======================================================
(PID.TID 0000.0001) // Begin MONITOR dynamic field statistics
(PID.TID 0000.0001) // =======================================================
(PID.TID 0000.0001) %MON time_tsnumber                =                    32
(PID.TID 0000.0001) %MON time_secondsf                =   2.8800000000000E+04
(PID.TID 0000.0001) %MON dynstat_eta_max              =   1.1784692177066E+00
(PID.TID 0000.0001) %MON dynstat_eta_min              =  -3.7426925125274E+00
(PID.TID 0000.0001) %MON dynstat_eta_mean             =  -1.4178786808967E-03
(PID.TID 0000.0001) %MON dynstat_eta_sd               =   7.2961193531394E-01
(PID.TID 0000.0001) %MON dynstat_eta_del2             =   2.2367540687133E-04
(PID.TID 0000.0001) %MON dynstat_uvel_max             =   1.2783548676779E+00
(PID.TID 0000.0001) %MON dynstat_uvel_min             =  -1.6786908111003E+00
(PID.TID 0000.0001) %MON dynstat_uvel_mean            =   2.0125019938157E-03
(PID.TID 0000.0001) %MON dynstat_uvel_sd              =   3.6769214919469E-02
(PID.TID 0000.0001) %MON dynstat_uvel_del2            =   7.0174845292957E-05
(PID.TID 0000.0001) %MON dynstat_vvel_max             =   1.3100040249807E+00
(PID.TID 0000.0001) %MON dynstat_vvel_min             =  -1.2295655369277E+00
(PID.TID 0000.0001) %MON dynstat_vvel_mean            =   1.1556593419662E-03
(PID.TID 0000.0001) %MON dynstat_vvel_sd              =   4.0804880130764E-02
(PID.TID 0000.0001) %MON dynstat_vvel_del2            =   6.7116064975923E-05
(PID.TID 0000.0001) %MON dynstat_wvel_max             =   2.6242497367257E-02
(PID.TID 0000.0001) %MON dynstat_wvel_min             =  -2.5926697341318E-02
(PID.TID 0000.0001) %MON dynstat_wvel_mean            =   2.1629370348539E-21
(PID.TID 0000.0001) %MON dynstat_wvel_sd              =   7.5222927339803E-04
(PID.TID 0000.0001) %MON dynstat_wvel_del2            =   1.6326143699592E-06
(PID.TID 0000.0001) %MON dynstat_theta_max            =   3.2667387753123E+01
(PID.TID 0000.0001) %MON dynstat_theta_min            =  -2.7125819683450E+00
(PID.TID 0000.0001) %MON dynstat_theta_mean           =   3.5902460760666E+00
(PID.TID 0000.0001) %MON dynstat_theta_sd             =   4.4236687877408E+00
(PID.TID 0000.0001) %MON dynstat_theta_del2           =   2.6899316726625E-04
(PID.TID 0000.0001) %MON dynstat_salt_max             =   4.0711506941494E+01
(PID.TID 0000.0001) %MON dynstat_salt_min             =   1.8860983176349E+01
(PID.TID 0000.0001) %MON dynstat_salt_mean            =   3.4725513694754E+01
(PID.TID 0000.0001) %MON dynstat_salt_sd              =   3.6798732038806E-01
(PID.TID 0000.0001) %MON dynstat_salt_del2            =   1.1247862796409E-04
(PID.TID 0000.0001) %MON dynstat_sst_max              =   3.2645437813536E+01
(PID.TID 0000.0001) %MON dynstat_sst_min              =  -2.7125819683450E+00
(PID.TID 0000.0001) %MON dynstat_sst_mean             =   1.8275186504628E+01
(PID.TID 0000.0001) %MON dynstat_sst_sd               =   1.0223243426478E+01
(PID.TID 0000.0001) %MON dynstat_sst_del2             =   2.3833913576659E-03
(PID.TID 0000.0001) %MON dynstat_sss_max              =   3.9510424425490E+01
(PID.TID 0000.0001) %MON dynstat_sss_min              =   1.8897275620347E+01
(PID.TID 0000.0001) %MON dynstat_sss_mean             =   3.4782919176734E+01
(PID.TID 0000.0001) %MON dynstat_sss_sd               =   9.8003815401988E-01
(PID.TID 0000.0001) %MON dynstat_sss_del2             =   1.8529578648608E-03
(PID.TID 0000.0001) %MON forcing_qnet_max             =   1.5510216064453E+03
(PID.TID 0000.0001) %MON forcing_qnet_min             =  -3.7753135587345E+03
(PID.TID 0000.0001) %MON forcing_qnet_mean            =   4.0988077153747E+00
(PID.TID 0000.0001) %MON forcing_qnet_sd              =   2.2942924278442E+02
(PID.TID 0000.0001) %MON forcing_qnet_del2            =   9.3306996041163E-01
(PID.TID 0000.0001) %MON forcing_qsw_max              =   0.0000000000000E+00
(PID.TID 0000.0001) %MON forcing_qsw_min              =  -4.3960926134611E+02
(PID.TID 0000.0001) %MON forcing_qsw_mean             =  -6.5645568459817E+01
(PID.TID 0000.0001) %MON forcing_qsw_sd               =   1.0235331338098E+02
(PID.TID 0000.0001) %MON forcing_qsw_del2             =   1.7586450599114E-01
(PID.TID 0000.0001) %MON forcing_empmr_max            =   5.2379015833139E-03
(PID.TID 0000.0001) %MON forcing_empmr_min            =  -7.1673288941383E-02
(PID.TID 0000.0001) %MON forcing_empmr_mean           =  -4.8891835674472E-06
(PID.TID 0000.0001) %MON forcing_empmr_sd             =   3.4689639949973E-04
(PID.TID 0000.0001) %MON forcing_empmr_del2           =   2.8785692142374E-06
(PID.TID 0000.0001) %MON forcing_fu_max               =   1.0842449069023E+00
(PID.TID 0000.0001) %MON forcing_fu_min               =  -9.7021850943565E-01
(PID.TID 0000.0001) %MON forcing_fu_mean              =   1.2635863484047E-02
(PID.TID 0000.0001) %MON forcing_fu_sd                =   1.0789583431048E-01
(PID.TID 0000.0001) %MON forcing_fu_del2              =   1.5633394555191E-04
(PID.TID 0000.0001) %MON forcing_fv_max               =   7.3830953240394E-01
(PID.TID 0000.0001) %MON forcing_fv_min               =  -7.0672676794123E-01
(PID.TID 0000.0001) %MON forcing_fv_mean              =  -7.0438694297647E-03
(PID.TID 0000.0001) %MON forcing_fv_sd                =   1.0496433340900E-01
(PID.TID 0000.0001) %MON forcing_fv_del2              =   1.2476884759643E-04
(PID.TID 0000.0001) %MON trAdv_CFL_u_max              =   3.0536094684564E-02
(PID.TID 0000.0001) %MON trAdv_CFL_v_max              =   2.6103452643535E-02
(PID.TID 0000.0001) %MON trAdv_CFL_w_max              =   2.6673245031347E-01
(PID.TID 0000.0001) %MON advcfl_uvel_max              =   3.0450699792316E-02
(PID.TID 0000.0001) %MON advcfl_vvel_max              =   2.6161302969944E-02
(PID.TID 0000.0001) %MON advcfl_wvel_max              =   2.7723231520779E-01
(PID.TID 0000.0001) %MON advcfl_W_hf_max              =   2.8955375143924E-01
(PID.TID 0000.0001) %MON pe_b_mean                    =   7.0023045201800E-04
(PID.TID 0000.0001) %MON ke_max                       =   1.3503888737318E+00
(PID.TID 0000.0001) %MON ke_mean                      =   1.4573939971414E-03
(PID.TID 0000.0001) %MON ke_vol                       =   1.3350064351420E+18
(PID.TID 0000.0001) %MON vort_r_min                   =  -5.6836310621062E-05
(PID.TID 0000.0001) %MON vort_r_max                   =   6.3226615601923E-05
(PID.TID 0000.0001) %MON vort_a_mean                  =  -1.9725213241026E-05
(PID.TID 0000.0001) %MON vort_a_sd                    =   7.4540781559833E-05
(PID.TID 0000.0001) %MON vort_p_mean                  =  -2.1669263470803E-05
(PID.TID 0000.0001) %MON vort_p_sd                    =   9.3624192942519E-05
(PID.TID 0000.0001) %MON surfExpan_theta_mean         =  -3.6131249409001E-06
(PID.TID 0000.0001) %MON surfExpan_salt_mean          =  -4.2471500709427E-07
(PID.TID 0000.0001) // =======================================================
(PID.TID 0000.0001) // End MONITOR dynamic field statistics
(PID.TID 0000.0001) // =======================================================
 cg2d: Sum(rhs),rhsMax =   2.76741815009157E+01  4.48509499727798E+00
 cg2d: Sum(rhs),rhsMax =   2.70691119745882E+01  4.57016991979759E+00
 cg2d: Sum(rhs),rhsMax =   2.65421328588177E+01  4.64415014470573E+00
 cg2d: Sum(rhs),rhsMax =   2.60982021455145E+01  4.70463564440279E+00
 cg2d: Sum(rhs),rhsMax =   2.57235172122105E+01  4.75264360419093E+00
 cg2d: Sum(rhs),rhsMax =   2.54053673717603E+01  4.79055617463870E+00
 cg2d: Sum(rhs),rhsMax =   2.51380405051204E+01  4.81920516419803E+00
 cg2d: Sum(rhs),rhsMax =   2.49109088795747E+01  4.83952505204744E+00
(PID.TID 0000.0001)      cg2d_init_res =   7.64778075877536E-01
(PID.TID 0000.0001)      cg2d_iters(min,last) =      -1      23
(PID.TID 0000.0001)      cg2d_last_res =   8.30832023544062E-06
(PID.TID 0000.0001) // =======================================================
(PID.TID 0000.0001) // Begin MONITOR dynamic field statistics
(PID.TID 0000.0001) // =======================================================
(PID.TID 0000.0001) %MON time_tsnumber                =                    40
(PID.TID 0000.0001) %MON time_secondsf                =   3.6000000000000E+04
(PID.TID 0000.0001) %MON dynstat_eta_max              =   1.1909825852670E+00
(PID.TID 0000.0001) %MON dynstat_eta_min              =  -4.2715714757110E+00
(PID.TID 0000.0001) %MON dynstat_eta_mean             =  -1.3728966906029E-03
(PID.TID 0000.0001) %MON dynstat_eta_sd               =   7.2794814142566E-01
(PID.TID 0000.0001) %MON dynstat_eta_del2             =   2.2083441116031E-04
(PID.TID 0000.0001) %MON dynstat_uvel_max             =   1.4804322639812E+00
(PID.TID 0000.0001) %MON dynstat_uvel_min             =  -1.6942539339792E+00
(PID.TID 0000.0001) %MON dynstat_uvel_mean            =   1.7730375296609E-03
(PID.TID 0000.0001) %MON dynstat_uvel_sd              =   3.7451342617421E-02
(PID.TID 0000.0001) %MON dynstat_uvel_del2            =   7.5516430111869E-05
(PID.TID 0000.0001) %MON dynstat_vvel_max             =   1.3478171515208E+00
(PID.TID 0000.0001) %MON dynstat_vvel_min             =  -1.4192679182525E+00
(PID.TID 0000.0001) %MON dynstat_vvel_mean            =   1.5277264445092E-03
(PID.TID 0000.0001) %MON dynstat_vvel_sd              =   4.3471393699282E-02
(PID.TID 0000.0001) %MON dynstat_vvel_del2            =   7.4357126956640E-05
(PID.TID 0000.0001) %MON dynstat_wvel_max             =   2.2283822599599E-02
(PID.TID 0000.0001) %MON dynstat_wvel_min             =  -2.1848900963015E-02
(PID.TID 0000.0001) %MON dynstat_wvel_mean            =  -5.5519239397320E-22
(PID.TID 0000.0001) %MON dynstat_wvel_sd              =   6.7876643486701E-04
(PID.TID 0000.0001) %MON dynstat_wvel_del2            =   1.5398777009112E-06
(PID.TID 0000.0001) %MON dynstat_theta_max            =   3.2668945510082E+01
(PID.TID 0000.0001) %MON dynstat_theta_min            =  -2.7079820634559E+00
(PID.TID 0000.0001) %MON dynstat_theta_mean           =   3.5902499383910E+00
(PID.TID 0000.0001) %MON dynstat_theta_sd             =   4.4236455172282E+00
(PID.TID 0000.0001) %MON dynstat_theta_del2           =   2.6033344154317E-04
(PID.TID 0000.0001) %MON dynstat_salt_max             =   4.0711503082628E+01
(PID.TID 0000.0001) %MON dynstat_salt_min             =   1.8861544856962E+01
(PID.TID 0000.0001) %MON dynstat_salt_mean            =   3.4725493622266E+01
(PID.TID 0000.0001) %MON dynstat_salt_sd              =   3.6790890151897E-01
(PID.TID 0000.0001) %MON dynstat_salt_del2            =   1.0913257443481E-04
(PID.TID 0000.0001) %MON dynstat_sst_max              =   3.2648376892011E+01
(PID.TID 0000.0001) %MON dynstat_sst_min              =  -2.7079820634559E+00
(PID.TID 0000.0001) %MON dynstat_sst_mean             =   1.8269809307317E+01
(PID.TID 0000.0001) %MON dynstat_sst_sd               =   1.0223170396015E+01
(PID.TID 0000.0001) %MON dynstat_sst_del2             =   2.2922099224845E-03
(PID.TID 0000.0001) %MON dynstat_sss_max              =   3.9464925841475E+01
(PID.TID 0000.0001) %MON dynstat_sss_min              =   1.8893817209162E+01
(PID.TID 0000.0001) %MON dynstat_sss_mean             =   3.4780985300433E+01
(PID.TID 0000.0001) %MON dynstat_sss_sd               =   9.7879085222769E-01
(PID.TID 0000.0001) %MON dynstat_sss_del2             =   1.8027273751118E-03
(PID.TID 0000.0001) %MON forcing_qnet_max             =   1.9784799804688E+03
(PID.TID 0000.0001) %MON forcing_qnet_min             =  -5.9636335872405E+03
(PID.TID 0000.0001) %MON forcing_qnet_mean            =   2.9049910842456E+01
(PID.TID 0000.0001) %MON forcing_qnet_sd              =   2.2164329564855E+02
(PID.TID 0000.0001) %MON forcing_qnet_del2            =   9.4441387195216E-01
(PID.TID 0000.0001) %MON forcing_qsw_max              =   0.0000000000000E+00
(PID.TID 0000.0001) %MON forcing_qsw_min              =  -4.3681971094069E+02
(PID.TID 0000.0001) %MON forcing_qsw_mean             =  -5.6604549534771E+01
(PID.TID 0000.0001) %MON forcing_qsw_sd               =   1.0322984955912E+02
(PID.TID 0000.0001) %MON forcing_qsw_del2             =   1.7131641074681E-01
(PID.TID 0000.0001) %MON forcing_empmr_max            =   7.8561743721366E-03
(PID.TID 0000.0001) %MON forcing_empmr_min            =  -1.2070770561695E-01
(PID.TID 0000.0001) %MON forcing_empmr_mean           =  -7.8328156384792E-06
(PID.TID 0000.0001) %MON forcing_empmr_sd             =   4.5412079372660E-04
(PID.TID 0000.0001) %MON forcing_empmr_del2           =   4.4075407955110E-06
(PID.TID 0000.0001) %MON forcing_fu_max               =   1.0613635778427E+00
(PID.TID 0000.0001) %MON forcing_fu_min               =  -9.1163471341133E-01
(PID.TID 0000.0001) %MON forcing_fu_mean              =   1.2825292139756E-02
(PID.TID 0000.0001) %MON forcing_fu_sd                =   1.0615190120584E-01
(PID.TID 0000.0001) %MON forcing_fu_del2              =   1.5237010005924E-04
(PID.TID 0000.0001) %MON forcing_fv_max               =   7.8516989946365E-01
(PID.TID 0000.0001) %MON forcing_fv_min               =  -6.2970310147877E-01
(PID.TID 0000.0001) %MON forcing_fv_mean              =  -8.2046256290615E-03
(PID.TID 0000.0001) %MON forcing_fv_sd                =   1.0424773832076E-01
(PID.TID 0000.0001) %MON forcing_fv_del2              =   1.2127749100702E-04
(PID.TID 0000.0001) %MON trAdv_CFL_u_max              =   2.8064468277360E-02
(PID.TID 0000.0001) %MON trAdv_CFL_v_max              =   2.6997709667700E-02
(PID.TID 0000.0001) %MON trAdv_CFL_w_max              =   2.6323894649508E-01
(PID.TID 0000.0001) %MON advcfl_uvel_max              =   2.8031288104463E-02
(PID.TID 0000.0001) %MON advcfl_vvel_max              =   2.7107159189796E-02
(PID.TID 0000.0001) %MON advcfl_wvel_max              =   2.7396504478618E-01
(PID.TID 0000.0001) %MON advcfl_W_hf_max              =   2.8614126899890E-01
(PID.TID 0000.0001) %MON pe_b_mean                    =   6.9704035446704E-04
(PID.TID 0000.0001) %MON ke_max                       =   1.3459557858394E+00
(PID.TID 0000.0001) %MON ke_mean                      =   1.5902222788322E-03
(PID.TID 0000.0001) %MON ke_vol                       =   1.3350064351420E+18
(PID.TID 0000.0001) %MON vort_r_min                   =  -4.9526421330065E-05
(PID.TID 0000.0001) %MON vort_r_max                   =   5.7362158302970E-05
(PID.TID 0000.0001) %MON vort_a_mean                  =  -1.9725213241026E-05
(PID.TID 0000.0001) %MON vort_a_sd                    =   7.4541908585023E-05
(PID.TID 0000.0001) %MON vort_p_mean                  =  -2.1669263470803E-05
(PID.TID 0000.0001) %MON vort_p_sd                    =   9.3628135506065E-05
(PID.TID 0000.0001) %MON surfExpan_theta_mean         =  -9.1399046065035E-06
(PID.TID 0000.0001) %MON surfExpan_salt_mean          =  -6.3884090532081E-07
(PID.TID 0000.0001) // =======================================================
(PID.TID 0000.0001) // End MONITOR dynamic field statistics
(PID.TID 0000.0001) // =======================================================
 cg2d: Sum(rhs),rhsMax =   2.47317974426142E+01  4.85013219451317E+00
 cg2d: Sum(rhs),rhsMax =   2.46090078137120E+01  4.84932521393077E+00
 cg2d: Sum(rhs),rhsMax =   2.45360560573642E+01  4.83799971199165E+00
 cg2d: Sum(rhs),rhsMax =   2.45095289578355E+01  4.81677596366615E+00
 cg2d: Sum(rhs),rhsMax =   2.45236082484794E+01  4.78687607740775E+00
 cg2d: Sum(rhs),rhsMax =   2.45796937311986E+01  4.74869544140266E+00
 cg2d: Sum(rhs),rhsMax =   2.46733136846517E+01  4.70322583754352E+00
 cg2d: Sum(rhs),rhsMax =   2.48004432145901E+01  4.65171470040582E+00
(PID.TID 0000.0001)      cg2d_init_res =   6.92348008777310E-01
(PID.TID 0000.0001)      cg2d_iters(min,last) =      -1      22
(PID.TID 0000.0001)      cg2d_last_res =   6.60456690171629E-06
(PID.TID 0000.0001) // =======================================================
(PID.TID 0000.0001) // Begin MONITOR dynamic field statistics
(PID.TID 0000.0001) // =======================================================
(PID.TID 0000.0001) %MON time_tsnumber                =                    48
(PID.TID 0000.0001) %MON time_secondsf                =   4.3200000000000E+04
(PID.TID 0000.0001) %MON dynstat_eta_max              =   1.3570560814079E+00
(PID.TID 0000.0001) %MON dynstat_eta_min              =  -3.4911738871440E+00
(PID.TID 0000.0001) %MON dynstat_eta_mean             =  -1.3137661130441E-03
(PID.TID 0000.0001) %MON dynstat_eta_sd               =   7.2132560413769E-01
(PID.TID 0000.0001) %MON dynstat_eta_del2             =   2.1290462984755E-04
(PID.TID 0000.0001) %MON dynstat_uvel_max             =   1.6327358632876E+00
(PID.TID 0000.0001) %MON dynstat_uvel_min             =  -1.6967582407846E+00
(PID.TID 0000.0001) %MON dynstat_uvel_mean            =   1.6846956794286E-03
(PID.TID 0000.0001) %MON dynstat_uvel_sd              =   3.7781630424379E-02
(PID.TID 0000.0001) %MON dynstat_uvel_del2            =   7.8511182504046E-05
(PID.TID 0000.0001) %MON dynstat_vvel_max             =   1.3911051325404E+00
(PID.TID 0000.0001) %MON dynstat_vvel_min             =  -1.5935822276564E+00
(PID.TID 0000.0001) %MON dynstat_vvel_mean            =   1.8558155634453E-03
(PID.TID 0000.0001) %MON dynstat_vvel_sd              =   4.3393524291780E-02
(PID.TID 0000.0001) %MON dynstat_vvel_del2            =   7.8802626408904E-05
(PID.TID 0000.0001) %MON dynstat_wvel_max             =   1.8688998050870E-02
(PID.TID 0000.0001) %MON dynstat_wvel_min             =  -1.7926362201295E-02
(PID.TID 0000.0001) %MON dynstat_wvel_mean            =   1.8275082968285E-21
(PID.TID 0000.0001) %MON dynstat_wvel_sd              =   6.0897947114756E-04
(PID.TID 0000.0001) %MON dynstat_wvel_del2            =   1.4181789247207E-06
(PID.TID 0000.0001) %MON dynstat_theta_max            =   3.2665598023235E+01
(PID.TID 0000.0001) %MON dynstat_theta_min            =  -2.7075692124395E+00
(PID.TID 0000.0001) %MON dynstat_theta_mean           =   3.5902542888384E+00
(PID.TID 0000.0001) %MON dynstat_theta_sd             =   4.4236148692434E+00
(PID.TID 0000.0001) %MON dynstat_theta_del2           =   2.5187994295714E-04
(PID.TID 0000.0001) %MON dynstat_salt_max             =   4.0711500330967E+01
(PID.TID 0000.0001) %MON dynstat_salt_min             =   1.8861770287527E+01
(PID.TID 0000.0001) %MON dynstat_salt_mean            =   3.4725479362590E+01
(PID.TID 0000.0001) %MON dynstat_salt_sd              =   3.6784815926216E-01
(PID.TID 0000.0001) %MON dynstat_salt_del2            =   1.0601589950513E-04
(PID.TID 0000.0001) %MON dynstat_sst_max              =   3.2631343930777E+01
(PID.TID 0000.0001) %MON dynstat_sst_min              =  -2.7075692124395E+00
(PID.TID 0000.0001) %MON dynstat_sst_mean             =   1.8264076542593E+01
(PID.TID 0000.0001) %MON dynstat_sst_sd               =   1.0222916277310E+01
(PID.TID 0000.0001) %MON dynstat_sst_del2             =   2.2219979335625E-03
(PID.TID 0000.0001) %MON dynstat_sss_max              =   3.9421300228639E+01
(PID.TID 0000.0001) %MON dynstat_sss_min              =   1.8887901133063E+01
(PID.TID 0000.0001) %MON dynstat_sss_mean             =   3.4780214136785E+01
(PID.TID 0000.0001) %MON dynstat_sss_sd               =   9.7881412834604E-01
(PID.TID 0000.0001) %MON dynstat_sss_del2             =   1.7587563332458E-03
(PID.TID 0000.0001) %MON forcing_qnet_max             =   3.2988607699046E+03
(PID.TID 0000.0001) %MON forcing_qnet_min             =  -3.8364145388312E+03
(PID.TID 0000.0001) %MON forcing_qnet_mean            =   3.6616105918360E+01
(PID.TID 0000.0001) %MON forcing_qnet_sd              =   2.0820455957159E+02
(PID.TID 0000.0001) %MON forcing_qnet_del2            =   8.3410983056638E-01
(PID.TID 0000.0001) %MON forcing_qsw_max              =   0.0000000000000E+00
(PID.TID 0000.0001) %MON forcing_qsw_min              =  -4.4386392560327E+02
(PID.TID 0000.0001) %MON forcing_qsw_mean             =  -5.3723168664895E+01
(PID.TID 0000.0001) %MON forcing_qsw_sd               =   9.8728446767301E+01
(PID.TID 0000.0001) %MON forcing_qsw_del2             =   1.6550527581765E-01
(PID.TID 0000.0001) %MON forcing_empmr_max            =   5.5046929046512E-03
(PID.TID 0000.0001) %MON forcing_empmr_min            =  -1.3302524387836E-01
(PID.TID 0000.0001) %MON forcing_empmr_mean           =  -8.8044989372847E-06
(PID.TID 0000.0001) %MON forcing_empmr_sd             =   4.7915116958919E-04
(PID.TID 0000.0001) %MON forcing_empmr_del2           =   5.0441421003081E-06
(PID.TID 0000.0001) %MON forcing_fu_max               =   1.0584533810616E+00
(PID.TID 0000.0001) %MON forcing_fu_min               =  -8.3718407154083E-01
(PID.TID 0000.0001) %MON forcing_fu_mean              =   1.2627747134180E-02
(PID.TID 0000.0001) %MON forcing_fu_sd                =   1.0474664040029E-01
(PID.TID 0000.0001) %MON forcing_fu_del2              =   1.4839431894945E-04
(PID.TID 0000.0001) %MON forcing_fv_max               =   7.8532543778419E-01
(PID.TID 0000.0001) %MON forcing_fv_min               =  -6.7522853962565E-01
(PID.TID 0000.0001) %MON forcing_fv_mean              =  -8.7608029992351E-03
(PID.TID 0000.0001) %MON forcing_fv_sd                =   1.0353352885830E-01
(PID.TID 0000.0001) %MON forcing_fv_del2              =   1.1851077977859E-04
(PID.TID 0000.0001) %MON trAdv_CFL_u_max              =   2.7944732459632E-02
(PID.TID 0000.0001) %MON trAdv_CFL_v_max              =   3.1728155443193E-02
(PID.TID 0000.0001) %MON trAdv_CFL_w_max              =   2.3997132198093E-01
(PID.TID 0000.0001) %MON advcfl_uvel_max              =   2.8072721648844E-02
(PID.TID 0000.0001) %MON advcfl_vvel_max              =   3.1841429158725E-02
(PID.TID 0000.0001) %MON advcfl_wvel_max              =   2.4985271197514E-01
(PID.TID 0000.0001) %MON advcfl_W_hf_max              =   2.6095727695182E-01
(PID.TID 0000.0001) %MON pe_b_mean                    =   6.8441517618836E-04
(PID.TID 0000.0001) %MON ke_max                       =   1.5577321912470E+00
(PID.TID 0000.0001) %MON ke_mean                      =   1.5993285031602E-03
(PID.TID 0000.0001) %MON ke_vol                       =   1.3350064351420E+18
(PID.TID 0000.0001) %MON vort_r_min                   =  -5.7072363517065E-05
(PID.TID 0000.0001) %MON vort_r_max                   =   5.0558145171253E-05
(PID.TID 0000.0001) %MON vort_a_mean                  =  -1.9725213241026E-05
(PID.TID 0000.0001) %MON vort_a_sd                    =   7.4542561737913E-05
(PID.TID 0000.0001) %MON vort_p_mean                  =  -2.1669263470803E-05
(PID.TID 0000.0001) %MON vort_p_sd                    =   9.3628714267435E-05
(PID.TID 0000.0001) %MON surfExpan_theta_mean         =  -1.1386520896237E-05
(PID.TID 0000.0001) %MON surfExpan_salt_mean          =  -7.7564956673917E-07
(PID.TID 0000.0001) // =======================================================
(PID.TID 0000.0001) // End MONITOR dynamic field statistics
(PID.TID 0000.0001) // =======================================================
(PID.TID 0000.0001) %CHECKPOINT        48 ckptA
 cg2d: Sum(rhs),rhsMax =   2.49591172075486E+01  4.59532396028755E+00
 cg2d: Sum(rhs),rhsMax =   2.51465467993594E+01  4.53473935837912E+00
 cg2d: Sum(rhs),rhsMax =   2.53615524389636E+01  4.47050007846764E+00
 cg2d: Sum(rhs),rhsMax =   2.56087114295099E+01  4.40231613480501E+00
 cg2d: Sum(rhs),rhsMax =   2.58903933342397E+01  4.33009767028783E+00
 cg2d: Sum(rhs),rhsMax =   2.62084148466336E+01  4.25352749651860E+00
 cg2d: Sum(rhs),rhsMax =   2.65693004195925E+01  4.17206678739692E+00
 cg2d: Sum(rhs),rhsMax =   2.69788492732378E+01  4.08524115044159E+00
(PID.TID 0000.0001)      cg2d_init_res =   7.24223050340588E-01
(PID.TID 0000.0001)      cg2d_iters(min,last) =      -1      23
(PID.TID 0000.0001)      cg2d_last_res =   8.05540581836557E-06
(PID.TID 0000.0001) // =======================================================
(PID.TID 0000.0001) // Begin MONITOR dynamic field statistics
(PID.TID 0000.0001) // =======================================================
(PID.TID 0000.0001) %MON time_tsnumber                =                    56
(PID.TID 0000.0001) %MON time_secondsf                =   5.0400000000000E+04
(PID.TID 0000.0001) %MON dynstat_eta_max              =   1.1421372336125E+00
(PID.TID 0000.0001) %MON dynstat_eta_min              =  -3.3772892520081E+00
(PID.TID 0000.0001) %MON dynstat_eta_mean             =  -1.2551240817049E-03
(PID.TID 0000.0001) %MON dynstat_eta_sd               =   7.1451071212074E-01
(PID.TID 0000.0001) %MON dynstat_eta_del2             =   2.0276077702526E-04
(PID.TID 0000.0001) %MON dynstat_uvel_max             =   1.8382812637964E+00
(PID.TID 0000.0001) %MON dynstat_uvel_min             =  -1.6924500346750E+00
(PID.TID 0000.0001) %MON dynstat_uvel_mean            =   1.5868678856118E-03
(PID.TID 0000.0001) %MON dynstat_uvel_sd              =   3.7746102667624E-02
(PID.TID 0000.0001) %MON dynstat_uvel_del2            =   7.9683694529484E-05
(PID.TID 0000.0001) %MON dynstat_vvel_max             =   1.5043029745406E+00
(PID.TID 0000.0001) %MON dynstat_vvel_min             =  -1.7958587107164E+00
(PID.TID 0000.0001) %MON dynstat_vvel_mean            =   2.0517218602219E-03
(PID.TID 0000.0001) %MON dynstat_vvel_sd              =   4.1409689281335E-02
(PID.TID 0000.0001) %MON dynstat_vvel_del2            =   8.0739755450234E-05
(PID.TID 0000.0001) %MON dynstat_wvel_max             =   1.5961422377361E-02
(PID.TID 0000.0001) %MON dynstat_wvel_min             =  -1.6716035444852E-02
(PID.TID 0000.0001) %MON dynstat_wvel_mean            =   2.7759619698660E-22
(PID.TID 0000.0001) %MON dynstat_wvel_sd              =   5.7169491995339E-04
(PID.TID 0000.0001) %MON dynstat_wvel_del2            =   1.3113709211097E-06
(PID.TID 0000.0001) %MON dynstat_theta_max            =   3.2648156587375E+01
(PID.TID 0000.0001) %MON dynstat_theta_min            =  -2.7025060579351E+00
(PID.TID 0000.0001) %MON dynstat_theta_mean           =   3.5902584287934E+00
(PID.TID 0000.0001) %MON dynstat_theta_sd             =   4.4235748855078E+00
(PID.TID 0000.0001) %MON dynstat_theta_del2           =   2.4444681910732E-04
(PID.TID 0000.0001) %MON dynstat_salt_max             =   4.0711498134662E+01
(PID.TID 0000.0001) %MON dynstat_salt_min             =   1.8861892221212E+01
(PID.TID 0000.0001) %MON dynstat_salt_mean            =   3.4725469706823E+01
(PID.TID 0000.0001) %MON dynstat_salt_sd              =   3.6780705398955E-01
(PID.TID 0000.0001) %MON dynstat_salt_del2            =   1.0334324476026E-04
(PID.TID 0000.0001) %MON dynstat_sst_max              =   3.2617186767462E+01
(PID.TID 0000.0001) %MON dynstat_sst_min              =  -2.7025060579351E+00
(PID.TID 0000.0001) %MON dynstat_sst_mean             =   1.8260132868044E+01
(PID.TID 0000.0001) %MON dynstat_sst_sd               =   1.0222907959402E+01
(PID.TID 0000.0001) %MON dynstat_sst_del2             =   2.1703175665277E-03
(PID.TID 0000.0001) %MON dynstat_sss_max              =   3.9380285669287E+01
(PID.TID 0000.0001) %MON dynstat_sss_min              =   1.8882710457478E+01
(PID.TID 0000.0001) %MON dynstat_sss_mean             =   3.4779654055848E+01
(PID.TID 0000.0001) %MON dynstat_sss_sd               =   9.7908253744680E-01
(PID.TID 0000.0001) %MON dynstat_sss_del2             =   1.7250601722702E-03
(PID.TID 0000.0001) %MON forcing_qnet_max             =   4.0369678960158E+03
(PID.TID 0000.0001) %MON forcing_qnet_min             =  -3.2952078501941E+03
(PID.TID 0000.0001) %MON forcing_qnet_mean            =   2.6781531891875E+01
(PID.TID 0000.0001) %MON forcing_qnet_sd              =   2.0058970776221E+02
(PID.TID 0000.0001) %MON forcing_qnet_del2            =   7.8568893253741E-01
(PID.TID 0000.0001) %MON forcing_qsw_max              =   0.0000000000000E+00
(PID.TID 0000.0001) %MON forcing_qsw_min              =  -3.9394494927482E+02
(PID.TID 0000.0001) %MON forcing_qsw_mean             =  -5.7697920175048E+01
(PID.TID 0000.0001) %MON forcing_qsw_sd               =   9.6930594065459E+01
(PID.TID 0000.0001) %MON forcing_qsw_del2             =   1.6572994471573E-01
(PID.TID 0000.0001) %MON forcing_empmr_max            =   5.9487591497600E-03
(PID.TID 0000.0001) %MON forcing_empmr_min            =  -9.2581540346146E-02
(PID.TID 0000.0001) %MON forcing_empmr_mean           =  -8.2959548224462E-06
(PID.TID 0000.0001) %MON forcing_empmr_sd             =   3.8928917377486E-04
(PID.TID 0000.0001) %MON forcing_empmr_del2           =   4.1900221437963E-06
(PID.TID 0000.0001) %MON forcing_fu_max               =   1.0377073287964E+00
(PID.TID 0000.0001) %MON forcing_fu_min               =  -7.4463695287704E-01
(PID.TID 0000.0001) %MON forcing_fu_mean              =   1.2035473894755E-02
(PID.TID 0000.0001) %MON forcing_fu_sd                =   1.0352285490763E-01
(PID.TID 0000.0001) %MON forcing_fu_del2              =   1.4413094235778E-04
(PID.TID 0000.0001) %MON forcing_fv_max               =   8.0356732010842E-01
(PID.TID 0000.0001) %MON forcing_fv_min               =  -6.8917161499208E-01
(PID.TID 0000.0001) %MON forcing_fv_mean              =  -8.6831662639806E-03
(PID.TID 0000.0001) %MON forcing_fv_sd                =   1.0260929645132E-01
(PID.TID 0000.0001) %MON forcing_fv_del2              =   1.1711599123024E-04
(PID.TID 0000.0001) %MON trAdv_CFL_u_max              =   3.5118908340104E-02
(PID.TID 0000.0001) %MON trAdv_CFL_v_max              =   3.6330851439662E-02
(PID.TID 0000.0001) %MON trAdv_CFL_w_max              =   2.3841097244889E-01
(PID.TID 0000.0001) %MON advcfl_uvel_max              =   3.4767661817365E-02
(PID.TID 0000.0001) %MON advcfl_vvel_max              =   3.6460557389268E-02
(PID.TID 0000.0001) %MON advcfl_wvel_max              =   2.4788424317759E-01
(PID.TID 0000.0001) %MON advcfl_W_hf_max              =   2.5890132065215E-01
(PID.TID 0000.0001) %MON pe_b_mean                    =   6.7154376713166E-04
(PID.TID 0000.0001) %MON ke_max                       =   2.2629978260379E+00
(PID.TID 0000.0001) %MON ke_mean                      =   1.5171168923029E-03
(PID.TID 0000.0001) %MON ke_vol                       =   1.3350064351420E+18
(PID.TID 0000.0001) %MON vort_r_min                   =  -6.2817413405286E-05
(PID.TID 0000.0001) %MON vort_r_max                   =   6.4797962431309E-05
(PID.TID 0000.0001) %MON vort_a_mean                  =  -1.9725213241026E-05
(PID.TID 0000.0001) %MON vort_a_sd                    =   7.4542697877041E-05
(PID.TID 0000.0001) %MON vort_p_mean                  =  -2.1669263470803E-05
(PID.TID 0000.0001) %MON vort_p_sd                    =   9.3627252016131E-05
(PID.TID 0000.0001) %MON surfExpan_theta_mean         =  -8.3488808872626E-06
(PID.TID 0000.0001) %MON surfExpan_salt_mean          =  -1.2187917222103E-06
(PID.TID 0000.0001) // =======================================================
(PID.TID 0000.0001) // End MONITOR dynamic field statistics
(PID.TID 0000.0001) // =======================================================
 cg2d: Sum(rhs),rhsMax =   2.74467753883659E+01  3.99254507690611E+00
 cg2d: Sum(rhs),rhsMax =   2.79828258135988E+01  3.89414391553489E+00
 cg2d: Sum(rhs),rhsMax =   2.85849450939913E+01  3.79013135366758E+00
 cg2d: Sum(rhs),rhsMax =   2.92583015817368E+01  3.68106863177963E+00
 cg2d: Sum(rhs),rhsMax =   2.96943268031405E+01  3.60541816009245E+00
 cg2d: Sum(rhs),rhsMax =   3.00610055720331E+01  3.53970742456535E+00
 cg2d: Sum(rhs),rhsMax =   3.04842421723911E+01  3.46807087625189E+00
 cg2d: Sum(rhs),rhsMax =   3.09769186729584E+01  3.39107309315498E+00
(PID.TID 0000.0001)      cg2d_init_res =   8.41166472577428E-01
(PID.TID 0000.0001)      cg2d_iters(min,last) =      -1      23
(PID.TID 0000.0001)      cg2d_last_res =   9.14145097856062E-06
(PID.TID 0000.0001) // =======================================================
(PID.TID 0000.0001) // Begin MONITOR dynamic field statistics
(PID.TID 0000.0001) // =======================================================
(PID.TID 0000.0001) %MON time_tsnumber                =                    64
(PID.TID 0000.0001) %MON time_secondsf                =   5.7600000000000E+04
(PID.TID 0000.0001) %MON dynstat_eta_max              =   1.0935420442040E+00
(PID.TID 0000.0001) %MON dynstat_eta_min              =  -2.9696448149128E+00
(PID.TID 0000.0001) %MON dynstat_eta_mean             =  -1.1962471307805E-03
(PID.TID 0000.0001) %MON dynstat_eta_sd               =   7.0781076883829E-01
(PID.TID 0000.0001) %MON dynstat_eta_del2             =   1.9198791067131E-04
(PID.TID 0000.0001) %MON dynstat_uvel_max             =   1.7828436578943E+00
(PID.TID 0000.0001) %MON dynstat_uvel_min             =  -1.5743095994811E+00
(PID.TID 0000.0001) %MON dynstat_uvel_mean            =   1.4194892069226E-03
(PID.TID 0000.0001) %MON dynstat_uvel_sd              =   3.6923129808470E-02
(PID.TID 0000.0001) %MON dynstat_uvel_del2            =   7.9260389162131E-05
(PID.TID 0000.0001) %MON dynstat_vvel_max             =   1.5193806727795E+00
(PID.TID 0000.0001) %MON dynstat_vvel_min             =  -1.6110926707737E+00
(PID.TID 0000.0001) %MON dynstat_vvel_mean            =   1.9873979481867E-03
(PID.TID 0000.0001) %MON dynstat_vvel_sd              =   3.9000293966208E-02
(PID.TID 0000.0001) %MON dynstat_vvel_del2            =   8.0708069320599E-05
(PID.TID 0000.0001) %MON dynstat_wvel_max             =   1.6662155486891E-02
(PID.TID 0000.0001) %MON dynstat_wvel_min             =  -1.5405695295583E-02
(PID.TID 0000.0001) %MON dynstat_wvel_mean            =   4.9967315457588E-21
(PID.TID 0000.0001) %MON dynstat_wvel_sd              =   5.5023528095288E-04
(PID.TID 0000.0001) %MON dynstat_wvel_del2            =   1.2237302345455E-06
(PID.TID 0000.0001) %MON dynstat_theta_max            =   3.2630389888826E+01
(PID.TID 0000.0001) %MON dynstat_theta_min            =  -2.6986969245746E+00
(PID.TID 0000.0001) %MON dynstat_theta_mean           =   3.5902619909999E+00
(PID.TID 0000.0001) %MON dynstat_theta_sd             =   4.4235295854953E+00
(PID.TID 0000.0001) %MON dynstat_theta_del2           =   2.3840060311267E-04
(PID.TID 0000.0001) %MON dynstat_salt_max             =   4.0711495956230E+01
(PID.TID 0000.0001) %MON dynstat_salt_min             =   1.8862135894778E+01
(PID.TID 0000.0001) %MON dynstat_salt_mean            =   3.4725462561821E+01
(PID.TID 0000.0001) %MON dynstat_salt_sd              =   3.6777520111647E-01
(PID.TID 0000.0001) %MON dynstat_salt_del2            =   1.0096365929694E-04
(PID.TID 0000.0001) %MON dynstat_sst_max              =   3.2603594390852E+01
(PID.TID 0000.0001) %MON dynstat_sst_min              =  -2.6986969245746E+00
(PID.TID 0000.0001) %MON dynstat_sst_mean             =   1.8258166568342E+01
(PID.TID 0000.0001) %MON dynstat_sst_sd               =   1.0222960280053E+01
(PID.TID 0000.0001) %MON dynstat_sst_del2             =   2.1237344108594E-03
(PID.TID 0000.0001) %MON dynstat_sss_max              =   3.9339450968879E+01
(PID.TID 0000.0001) %MON dynstat_sss_min              =   1.8878211462204E+01
(PID.TID 0000.0001) %MON dynstat_sss_mean             =   3.4779213225271E+01
(PID.TID 0000.0001) %MON dynstat_sss_sd               =   9.7933282681199E-01
(PID.TID 0000.0001) %MON dynstat_sss_del2             =   1.6933131951858E-03
(PID.TID 0000.0001) %MON forcing_qnet_max             =   1.3162813969374E+03
(PID.TID 0000.0001) %MON forcing_qnet_min             =  -4.8734877929688E+03
(PID.TID 0000.0001) %MON forcing_qnet_mean            =   1.5328001697066E+01
(PID.TID 0000.0001) %MON forcing_qnet_sd              =   2.1427964786813E+02
(PID.TID 0000.0001) %MON forcing_qnet_del2            =   8.4400654129284E-01
(PID.TID 0000.0001) %MON forcing_qsw_max              =   0.0000000000000E+00
(PID.TID 0000.0001) %MON forcing_qsw_min              =  -4.1144884901016E+02
(PID.TID 0000.0001) %MON forcing_qsw_mean             =  -6.2041280276074E+01
(PID.TID 0000.0001) %MON forcing_qsw_sd               =   1.0851455564244E+02
(PID.TID 0000.0001) %MON forcing_qsw_del2             =   1.7528769599093E-01
(PID.TID 0000.0001) %MON forcing_empmr_max            =   8.9580621570349E-03
(PID.TID 0000.0001) %MON forcing_empmr_min            =  -6.9262556731701E-02
(PID.TID 0000.0001) %MON forcing_empmr_mean           =  -8.5578331623512E-06
(PID.TID 0000.0001) %MON forcing_empmr_sd             =   3.3956738654812E-04
(PID.TID 0000.0001) %MON forcing_empmr_del2           =   3.2152025366863E-06
(PID.TID 0000.0001) %MON forcing_fu_max               =   1.0182849764824E+00
(PID.TID 0000.0001) %MON forcing_fu_min               =  -7.2729486227036E-01
(PID.TID 0000.0001) %MON forcing_fu_mean              =   1.1271317086094E-02
(PID.TID 0000.0001) %MON forcing_fu_sd                =   1.0210086375452E-01
(PID.TID 0000.0001) %MON forcing_fu_del2              =   1.4111197207067E-04
(PID.TID 0000.0001) %MON forcing_fv_max               =   8.4589752554893E-01
(PID.TID 0000.0001) %MON forcing_fv_min               =  -6.9483260786698E-01
(PID.TID 0000.0001) %MON forcing_fv_mean              =  -8.2697469125064E-03
(PID.TID 0000.0001) %MON forcing_fv_sd                =   1.0214080505493E-01
(PID.TID 0000.0001) %MON forcing_fv_del2              =   1.1579501282969E-04
(PID.TID 0000.0001) %MON trAdv_CFL_u_max              =   3.3999106871085E-02
(PID.TID 0000.0001) %MON trAdv_CFL_v_max              =   3.2592969662997E-02
(PID.TID 0000.0001) %MON trAdv_CFL_w_max              =   2.4956544575911E-01
(PID.TID 0000.0001) %MON advcfl_uvel_max              =   3.3659060194546E-02
(PID.TID 0000.0001) %MON advcfl_vvel_max              =   3.2709330879790E-02
(PID.TID 0000.0001) %MON advcfl_wvel_max              =   2.5966514251549E-01
(PID.TID 0000.0001) %MON advcfl_W_hf_max              =   2.7120581551617E-01
(PID.TID 0000.0001) %MON pe_b_mean                    =   6.5900857580651E-04
(PID.TID 0000.0001) %MON ke_max                       =   1.9294367550188E+00
(PID.TID 0000.0001) %MON ke_mean                      =   1.3936900386348E-03
(PID.TID 0000.0001) %MON ke_vol                       =   1.3350064351420E+18
(PID.TID 0000.0001) %MON vort_r_min                   =  -5.2376590070113E-05
(PID.TID 0000.0001) %MON vort_r_max                   =   6.3781770930528E-05
(PID.TID 0000.0001) %MON vort_a_mean                  =  -1.9725213241026E-05
(PID.TID 0000.0001) %MON vort_a_sd                    =   7.4542479358437E-05
(PID.TID 0000.0001) %MON vort_p_mean                  =  -2.1669263470803E-05
(PID.TID 0000.0001) %MON vort_p_sd                    =   9.3625035764736E-05
(PID.TID 0000.0001) %MON surfExpan_theta_mean         =  -6.2003453675176E-06
(PID.TID 0000.0001) %MON surfExpan_salt_mean          =  -6.1562045625557E-07
(PID.TID 0000.0001) // =======================================================
(PID.TID 0000.0001) // End MONITOR dynamic field statistics
(PID.TID 0000.0001) // =======================================================
 cg2d: Sum(rhs),rhsMax =   3.15281876707677E+01  3.31031110818299E+00
 cg2d: Sum(rhs),rhsMax =   3.21413866037060E+01  3.22546770870746E+00
 cg2d: Sum(rhs),rhsMax =   3.28148462912984E+01  3.13754489380318E+00
 cg2d: Sum(rhs),rhsMax =   3.35505416420383E+01  3.04676344889698E+00
 cg2d: Sum(rhs),rhsMax =   3.34578805318147E+01  3.03359752556366E+00
 cg2d: Sum(rhs),rhsMax =   3.32871052373343E+01  3.02781642867562E+00
 cg2d: Sum(rhs),rhsMax =   3.31196432926470E+01  3.02145253281957E+00
 cg2d: Sum(rhs),rhsMax =   3.29499044164129E+01  3.01459138021661E+00
(PID.TID 0000.0001)      cg2d_init_res =   8.76982969850756E-01
(PID.TID 0000.0001)      cg2d_iters(min,last) =      -1      23
(PID.TID 0000.0001)      cg2d_last_res =   9.52280987536981E-06
(PID.TID 0000.0001) // =======================================================
(PID.TID 0000.0001) // Begin MONITOR dynamic field statistics
(PID.TID 0000.0001) // =======================================================
(PID.TID 0000.0001) %MON time_tsnumber                =                    72
(PID.TID 0000.0001) %MON time_secondsf                =   6.4800000000000E+04
(PID.TID 0000.0001) %MON dynstat_eta_max              =   1.0566942356999E+00
(PID.TID 0000.0001) %MON dynstat_eta_min              =  -3.1956729651876E+00
(PID.TID 0000.0001) %MON dynstat_eta_mean             =  -1.1311707193231E-03
(PID.TID 0000.0001) %MON dynstat_eta_sd               =   7.0158581014310E-01
(PID.TID 0000.0001) %MON dynstat_eta_del2             =   1.7987181024727E-04
(PID.TID 0000.0001) %MON dynstat_uvel_max             =   1.7847215939338E+00
(PID.TID 0000.0001) %MON dynstat_uvel_min             =  -1.5980616089530E+00
(PID.TID 0000.0001) %MON dynstat_uvel_mean            =   1.1760677537609E-03
(PID.TID 0000.0001) %MON dynstat_uvel_sd              =   3.5535414146629E-02
(PID.TID 0000.0001) %MON dynstat_uvel_del2            =   7.7511459984508E-05
(PID.TID 0000.0001) %MON dynstat_vvel_max             =   1.4960503425441E+00
(PID.TID 0000.0001) %MON dynstat_vvel_min             =  -1.1072046561110E+00
(PID.TID 0000.0001) %MON dynstat_vvel_mean            =   1.8518173411503E-03
(PID.TID 0000.0001) %MON dynstat_vvel_sd              =   3.7170497171098E-02
(PID.TID 0000.0001) %MON dynstat_vvel_del2            =   7.9316460171035E-05
(PID.TID 0000.0001) %MON dynstat_wvel_max             =   1.5322519804273E-02
(PID.TID 0000.0001) %MON dynstat_wvel_min             =  -1.3209830128051E-02
(PID.TID 0000.0001) %MON dynstat_wvel_mean            =   1.8853408378673E-21
(PID.TID 0000.0001) %MON dynstat_wvel_sd              =   5.2020695117319E-04
(PID.TID 0000.0001) %MON dynstat_wvel_del2            =   1.1436180266641E-06
(PID.TID 0000.0001) %MON dynstat_theta_max            =   3.2612280623231E+01
(PID.TID 0000.0001) %MON dynstat_theta_min            =  -2.6831777725393E+00
(PID.TID 0000.0001) %MON dynstat_theta_mean           =   3.5902704427959E+00
(PID.TID 0000.0001) %MON dynstat_theta_sd             =   4.4235132313152E+00
(PID.TID 0000.0001) %MON dynstat_theta_del2           =   2.3394579834725E-04
(PID.TID 0000.0001) %MON dynstat_salt_max             =   4.0711493527590E+01
(PID.TID 0000.0001) %MON dynstat_salt_min             =   1.8864299977536E+01
(PID.TID 0000.0001) %MON dynstat_salt_mean            =   3.4725456273318E+01
(PID.TID 0000.0001) %MON dynstat_salt_sd              =   3.6774896755415E-01
(PID.TID 0000.0001) %MON dynstat_salt_del2            =   9.8727904437508E-05
(PID.TID 0000.0001) %MON dynstat_sst_max              =   3.2589299742113E+01
(PID.TID 0000.0001) %MON dynstat_sst_min              =  -2.6831777725393E+00
(PID.TID 0000.0001) %MON dynstat_sst_mean             =   1.8258105042626E+01
(PID.TID 0000.0001) %MON dynstat_sst_sd               =   1.0223684861810E+01
(PID.TID 0000.0001) %MON dynstat_sst_del2             =   2.0861728148781E-03
(PID.TID 0000.0001) %MON dynstat_sss_max              =   3.9297477765054E+01
(PID.TID 0000.0001) %MON dynstat_sss_min              =   1.8871327714730E+01
(PID.TID 0000.0001) %MON dynstat_sss_mean             =   3.4778796581637E+01
(PID.TID 0000.0001) %MON dynstat_sss_sd               =   9.7961443927567E-01
(PID.TID 0000.0001) %MON dynstat_sss_del2             =   1.6585350823437E-03
(PID.TID 0000.0001) %MON forcing_qnet_max             =   2.1483706054688E+03
(PID.TID 0000.0001) %MON forcing_qnet_min             =  -3.1837412109375E+03
(PID.TID 0000.0001) %MON forcing_qnet_mean            =   3.3821428108569E+00
(PID.TID 0000.0001) %MON forcing_qnet_sd              =   2.2280975846600E+02
(PID.TID 0000.0001) %MON forcing_qnet_del2            =   6.6406404108155E-01
(PID.TID 0000.0001) %MON forcing_qsw_max              =   0.0000000000000E+00
(PID.TID 0000.0001) %MON forcing_qsw_min              =  -4.4361192806645E+02
(PID.TID 0000.0001) %MON forcing_qsw_mean             =  -6.7836143269092E+01
(PID.TID 0000.0001) %MON forcing_qsw_sd               =   1.1553994056099E+02
(PID.TID 0000.0001) %MON forcing_qsw_del2             =   1.7946228175049E-01
(PID.TID 0000.0001) %MON forcing_empmr_max            =   6.3659669831395E-03
(PID.TID 0000.0001) %MON forcing_empmr_min            =  -9.7382336854935E-02
(PID.TID 0000.0001) %MON forcing_empmr_mean           =  -9.7678730867854E-06
(PID.TID 0000.0001) %MON forcing_empmr_sd             =   3.9950304508353E-04
(PID.TID 0000.0001) %MON forcing_empmr_del2           =   2.7428918813942E-06
(PID.TID 0000.0001) %MON forcing_fu_max               =   9.6046590805054E-01
(PID.TID 0000.0001) %MON forcing_fu_min               =  -6.9546398520470E-01
(PID.TID 0000.0001) %MON forcing_fu_mean              =   1.0819109419726E-02
(PID.TID 0000.0001) %MON forcing_fu_sd                =   1.0061542529539E-01
(PID.TID 0000.0001) %MON forcing_fu_del2              =   1.3846131074965E-04
(PID.TID 0000.0001) %MON forcing_fv_max               =   9.2321994900703E-01
(PID.TID 0000.0001) %MON forcing_fv_min               =  -7.5578754195989E-01
(PID.TID 0000.0001) %MON forcing_fv_mean              =  -8.3504018622814E-03
(PID.TID 0000.0001) %MON forcing_fv_sd                =   1.0159415386739E-01
(PID.TID 0000.0001) %MON forcing_fv_del2              =   1.1478638493440E-04
(PID.TID 0000.0001) %MON trAdv_CFL_u_max              =   2.6147206300085E-02
(PID.TID 0000.0001) %MON trAdv_CFL_v_max              =   2.6552349489300E-02
(PID.TID 0000.0001) %MON trAdv_CFL_w_max              =   2.4672228831084E-01
(PID.TID 0000.0001) %MON advcfl_uvel_max              =   2.6439794219061E-02
(PID.TID 0000.0001) %MON advcfl_vvel_max              =   2.6556068403978E-02
(PID.TID 0000.0001) %MON advcfl_wvel_max              =   2.5683047362508E-01
(PID.TID 0000.0001) %MON advcfl_W_hf_max              =   2.6824516134175E-01
(PID.TID 0000.0001) %MON pe_b_mean                    =   6.4746786180815E-04
(PID.TID 0000.0001) %MON ke_max                       =   1.4579916545937E+00
(PID.TID 0000.0001) %MON ke_mean                      =   1.2774405865698E-03
(PID.TID 0000.0001) %MON ke_vol                       =   1.3350064351420E+18
(PID.TID 0000.0001) %MON vort_r_min                   =  -4.4455079413044E-05
(PID.TID 0000.0001) %MON vort_r_max                   =   4.8672747250689E-05
(PID.TID 0000.0001) %MON vort_a_mean                  =  -1.9725213241026E-05
(PID.TID 0000.0001) %MON vort_a_sd                    =   7.4542149199265E-05
(PID.TID 0000.0001) %MON vort_p_mean                  =  -2.1669263470803E-05
(PID.TID 0000.0001) %MON vort_p_sd                    =   9.3623547047732E-05
(PID.TID 0000.0001) %MON surfExpan_theta_mean         =  -6.9439937640209E-06
(PID.TID 0000.0001) %MON surfExpan_salt_mean          =  -4.4899839686080E-07
(PID.TID 0000.0001) // =======================================================
(PID.TID 0000.0001) // End MONITOR dynamic field statistics
(PID.TID 0000.0001) // =======================================================
 cg2d: Sum(rhs),rhsMax =   3.27859666820802E+01  3.00733677565607E+00
 cg2d: Sum(rhs),rhsMax =   3.26330514734759E+01  2.99980227940873E+00
 cg2d: Sum(rhs),rhsMax =   3.24836557908725E+01  2.99210457387623E+00
 cg2d: Sum(rhs),rhsMax =   3.22844873850618E+01  2.98861045186525E+00
 cg2d: Sum(rhs),rhsMax =   3.20726126607774E+01  2.98607459260994E+00
 cg2d: Sum(rhs),rhsMax =   3.18693712771262E+01  2.98247630886601E+00
 cg2d: Sum(rhs),rhsMax =   3.16730805730460E+01  2.97787694645305E+00
 cg2d: Sum(rhs),rhsMax =   3.14875849259022E+01  2.97281813034491E+00
(PID.TID 0000.0001)      cg2d_init_res =   8.18161821355876E-01
(PID.TID 0000.0001)      cg2d_iters(min,last) =      -1      23
(PID.TID 0000.0001)      cg2d_last_res =   7.83191802666851E-06
(PID.TID 0000.0001) // =======================================================
(PID.TID 0000.0001) // Begin MONITOR dynamic field statistics
(PID.TID 0000.0001) // =======================================================
(PID.TID 0000.0001) %MON time_tsnumber                =                    80
(PID.TID 0000.0001) %MON time_secondsf                =   7.2000000000000E+04
(PID.TID 0000.0001) %MON dynstat_eta_max              =   1.0473797885901E+00
(PID.TID 0000.0001) %MON dynstat_eta_min              =  -3.1105037284476E+00
(PID.TID 0000.0001) %MON dynstat_eta_mean             =  -1.0659902573514E-03
(PID.TID 0000.0001) %MON dynstat_eta_sd               =   6.9806694257218E-01
(PID.TID 0000.0001) %MON dynstat_eta_del2             =   1.7135973654749E-04
(PID.TID 0000.0001) %MON dynstat_uvel_max             =   1.7419755022631E+00
(PID.TID 0000.0001) %MON dynstat_uvel_min             =  -1.5899021882605E+00
(PID.TID 0000.0001) %MON dynstat_uvel_mean            =   9.2048643984638E-04
(PID.TID 0000.0001) %MON dynstat_uvel_sd              =   3.4466688726705E-02
(PID.TID 0000.0001) %MON dynstat_uvel_del2            =   7.4965527114571E-05
(PID.TID 0000.0001) %MON dynstat_vvel_max             =   1.4744768885066E+00
(PID.TID 0000.0001) %MON dynstat_vvel_min             =  -1.0153125267325E+00
(PID.TID 0000.0001) %MON dynstat_vvel_mean            =   1.6284340846107E-03
(PID.TID 0000.0001) %MON dynstat_vvel_sd              =   3.6020770563197E-02
(PID.TID 0000.0001) %MON dynstat_vvel_del2            =   7.7083697547121E-05
(PID.TID 0000.0001) %MON dynstat_wvel_max             =   1.2550137467260E-02
(PID.TID 0000.0001) %MON dynstat_wvel_min             =  -1.1365201089125E-02
(PID.TID 0000.0001) %MON dynstat_wvel_mean            =  -8.9640438610256E-23
(PID.TID 0000.0001) %MON dynstat_wvel_sd              =   4.7829190918883E-04
(PID.TID 0000.0001) %MON dynstat_wvel_del2            =   1.0623642423207E-06
(PID.TID 0000.0001) %MON dynstat_theta_max            =   3.2593701562375E+01
(PID.TID 0000.0001) %MON dynstat_theta_min            =  -2.4130448230136E+00
(PID.TID 0000.0001) %MON dynstat_theta_mean           =   3.5902857361163E+00
(PID.TID 0000.0001) %MON dynstat_theta_sd             =   4.4235473265552E+00
(PID.TID 0000.0001) %MON dynstat_theta_del2           =   2.3099892185192E-04
(PID.TID 0000.0001) %MON dynstat_salt_max             =   4.0711490412648E+01
(PID.TID 0000.0001) %MON dynstat_salt_min             =   1.8840099542515E+01
(PID.TID 0000.0001) %MON dynstat_salt_mean            =   3.4725450930730E+01
(PID.TID 0000.0001) %MON dynstat_salt_sd              =   3.6772944307913E-01
(PID.TID 0000.0001) %MON dynstat_salt_del2            =   9.6702244495139E-05
(PID.TID 0000.0001) %MON dynstat_sst_max              =   3.2573610133589E+01
(PID.TID 0000.0001) %MON dynstat_sst_min              =  -2.4130448230136E+00
(PID.TID 0000.0001) %MON dynstat_sst_mean             =   1.8259348267778E+01
(PID.TID 0000.0001) %MON dynstat_sst_sd               =   1.0225691431938E+01
(PID.TID 0000.0001) %MON dynstat_sst_del2             =   2.0573900422016E-03
(PID.TID 0000.0001) %MON dynstat_sss_max              =   3.9257071700520E+01
(PID.TID 0000.0001) %MON dynstat_sss_min              =   1.8840099542515E+01
(PID.TID 0000.0001) %MON dynstat_sss_mean             =   3.4778389418646E+01
(PID.TID 0000.0001) %MON dynstat_sss_sd               =   9.7998356126566E-01
(PID.TID 0000.0001) %MON dynstat_sss_del2             =   1.6267519995841E-03
(PID.TID 0000.0001) %MON forcing_qnet_max             =   2.5084160156250E+03
(PID.TID 0000.0001) %MON forcing_qnet_min             =  -3.5400366812910E+03
(PID.TID 0000.0001) %MON forcing_qnet_mean            =  -7.1837200567693E+00
(PID.TID 0000.0001) %MON forcing_qnet_sd              =   2.1414340483249E+02
(PID.TID 0000.0001) %MON forcing_qnet_del2            =   6.3507375823600E-01
(PID.TID 0000.0001) %MON forcing_qsw_max              =   0.0000000000000E+00
(PID.TID 0000.0001) %MON forcing_qsw_min              =  -4.3496303412993E+02
(PID.TID 0000.0001) %MON forcing_qsw_mean             =  -7.4444153714535E+01
(PID.TID 0000.0001) %MON forcing_qsw_sd               =   1.1314013283235E+02
(PID.TID 0000.0001) %MON forcing_qsw_del2             =   1.7828937051910E-01
(PID.TID 0000.0001) %MON forcing_empmr_max            =   6.1459690332413E-03
(PID.TID 0000.0001) %MON forcing_empmr_min            =  -1.1210113018751E-01
(PID.TID 0000.0001) %MON forcing_empmr_mean           =  -9.0575918635965E-06
(PID.TID 0000.0001) %MON forcing_empmr_sd             =   4.4877813941216E-04
(PID.TID 0000.0001) %MON forcing_empmr_del2           =   2.8941665259936E-06
(PID.TID 0000.0001) %MON forcing_fu_max               =   8.9164671301842E-01
(PID.TID 0000.0001) %MON forcing_fu_min               =  -6.5866461396217E-01
(PID.TID 0000.0001) %MON forcing_fu_mean              =   1.0544006327979E-02
(PID.TID 0000.0001) %MON forcing_fu_sd                =   9.8739270717942E-02
(PID.TID 0000.0001) %MON forcing_fu_del2              =   1.3536716973777E-04
(PID.TID 0000.0001) %MON forcing_fv_max               =   9.3843662738800E-01
(PID.TID 0000.0001) %MON forcing_fv_min               =  -7.7090861533459E-01
(PID.TID 0000.0001) %MON forcing_fv_mean              =  -8.8432530432885E-03
(PID.TID 0000.0001) %MON forcing_fv_sd                =   1.0100473163745E-01
(PID.TID 0000.0001) %MON forcing_fv_del2              =   1.1321821426018E-04
(PID.TID 0000.0001) %MON trAdv_CFL_u_max              =   2.5754687318881E-02
(PID.TID 0000.0001) %MON trAdv_CFL_v_max              =   2.6173915460747E-02
(PID.TID 0000.0001) %MON trAdv_CFL_w_max              =   2.3186731267369E-01
(PID.TID 0000.0001) %MON advcfl_uvel_max              =   2.6046521105230E-02
(PID.TID 0000.0001) %MON advcfl_vvel_max              =   2.6173297948413E-02
(PID.TID 0000.0001) %MON advcfl_wvel_max              =   2.4140475766986E-01
(PID.TID 0000.0001) %MON advcfl_W_hf_max              =   2.5213385801075E-01
(PID.TID 0000.0001) %MON pe_b_mean                    =   6.4098910993303E-04
(PID.TID 0000.0001) %MON ke_max                       =   1.3801887910388E+00
(PID.TID 0000.0001) %MON ke_mean                      =   1.2001564027825E-03
(PID.TID 0000.0001) %MON ke_vol                       =   1.3350064351420E+18
(PID.TID 0000.0001) %MON vort_r_min                   =  -4.7226294534773E-05
(PID.TID 0000.0001) %MON vort_r_max                   =   4.7707184967563E-05
(PID.TID 0000.0001) %MON vort_a_mean                  =  -1.9725213241026E-05
(PID.TID 0000.0001) %MON vort_a_sd                    =   7.4541842878138E-05
(PID.TID 0000.0001) %MON vort_p_mean                  =  -2.1669263470803E-05
(PID.TID 0000.0001) %MON vort_p_sd                    =   9.3622833270955E-05
(PID.TID 0000.0001) %MON surfExpan_theta_mean         =  -7.7616721639944E-06
(PID.TID 0000.0001) %MON surfExpan_salt_mean          =  -2.5640549406070E-07
(PID.TID 0000.0001) // =======================================================
(PID.TID 0000.0001) // End MONITOR dynamic field statistics
(PID.TID 0000.0001) // =======================================================
 cg2d: Sum(rhs),rhsMax =   3.13013238121532E+01  2.96807588548367E+00
 cg2d: Sum(rhs),rhsMax =   3.10995549719833E+01  2.96456519926326E+00
 cg2d: Sum(rhs),rhsMax =   3.08746284100382E+01  2.96307637629307E+00
 cg2d: Sum(rhs),rhsMax =   3.06268786256990E+01  2.96430372955427E+00
 cg2d: Sum(rhs),rhsMax =   3.03427570126221E+01  2.96953119191563E+00
 cg2d: Sum(rhs),rhsMax =   3.00353282472308E+01  2.97709875201760E+00
 cg2d: Sum(rhs),rhsMax =   2.97117283029600E+01  2.98631789150019E+00
 cg2d: Sum(rhs),rhsMax =   2.93766697661538E+01  2.99618390683376E+00
(PID.TID 0000.0001)      cg2d_init_res =   7.30937597643300E-01
(PID.TID 0000.0001)      cg2d_iters(min,last) =      -1      23
(PID.TID 0000.0001)      cg2d_last_res =   7.22905958290029E-06
(PID.TID 0000.0001) // =======================================================
(PID.TID 0000.0001) // Begin MONITOR dynamic field statistics
(PID.TID 0000.0001) // =======================================================
(PID.TID 0000.0001) %MON time_tsnumber                =                    88
(PID.TID 0000.0001) %MON time_secondsf                =   7.9200000000000E+04
(PID.TID 0000.0001) %MON dynstat_eta_max              =   1.0900593806714E+00
(PID.TID 0000.0001) %MON dynstat_eta_min              =  -3.0815384098100E+00
(PID.TID 0000.0001) %MON dynstat_eta_mean             =  -1.0023434826078E-03
(PID.TID 0000.0001) %MON dynstat_eta_sd               =   6.9449089435849E-01
(PID.TID 0000.0001) %MON dynstat_eta_del2             =   1.6476717217647E-04
(PID.TID 0000.0001) %MON dynstat_uvel_max             =   1.6625916469475E+00
(PID.TID 0000.0001) %MON dynstat_uvel_min             =  -1.4979599541561E+00
(PID.TID 0000.0001) %MON dynstat_uvel_mean            =   8.4188396093945E-04
(PID.TID 0000.0001) %MON dynstat_uvel_sd              =   3.4251252286901E-02
(PID.TID 0000.0001) %MON dynstat_uvel_del2            =   7.2133794497582E-05
(PID.TID 0000.0001) %MON dynstat_vvel_max             =   1.4684499411145E+00
(PID.TID 0000.0001) %MON dynstat_vvel_min             =  -1.1563607232279E+00
(PID.TID 0000.0001) %MON dynstat_vvel_mean            =   1.5753337751909E-03
(PID.TID 0000.0001) %MON dynstat_vvel_sd              =   3.5528462310751E-02
(PID.TID 0000.0001) %MON dynstat_vvel_del2            =   7.4428118226652E-05
(PID.TID 0000.0001) %MON dynstat_wvel_max             =   9.9854110744843E-03
(PID.TID 0000.0001) %MON dynstat_wvel_min             =  -9.7446412482708E-03
(PID.TID 0000.0001) %MON dynstat_wvel_mean            =   1.2838824110630E-21
(PID.TID 0000.0001) %MON dynstat_wvel_sd              =   4.3930528939698E-04
(PID.TID 0000.0001) %MON dynstat_wvel_del2            =   9.8104752595543E-07
(PID.TID 0000.0001) %MON dynstat_theta_max            =   3.2575414628129E+01
(PID.TID 0000.0001) %MON dynstat_theta_min            =  -2.3810386004776E+00
(PID.TID 0000.0001) %MON dynstat_theta_mean           =   3.5903090663950E+00
(PID.TID 0000.0001) %MON dynstat_theta_sd             =   4.4236184310307E+00
(PID.TID 0000.0001) %MON dynstat_theta_del2           =   2.2920121538973E-04
(PID.TID 0000.0001) %MON dynstat_salt_max             =   4.0711487288518E+01
(PID.TID 0000.0001) %MON dynstat_salt_min             =   1.7921141875289E+01
(PID.TID 0000.0001) %MON dynstat_salt_mean            =   3.4725445956899E+01
(PID.TID 0000.0001) %MON dynstat_salt_sd              =   3.6771221861954E-01
(PID.TID 0000.0001) %MON dynstat_salt_del2            =   9.4924272860549E-05
(PID.TID 0000.0001) %MON dynstat_sst_max              =   3.2556392359954E+01
(PID.TID 0000.0001) %MON dynstat_sst_min              =  -2.3810386004776E+00
(PID.TID 0000.0001) %MON dynstat_sst_mean             =   1.8260440326209E+01
(PID.TID 0000.0001) %MON dynstat_sst_sd               =   1.0227701731285E+01
(PID.TID 0000.0001) %MON dynstat_sst_del2             =   2.0339248496453E-03
(PID.TID 0000.0001) %MON dynstat_sss_max              =   3.9219496721862E+01
(PID.TID 0000.0001) %MON dynstat_sss_min              =   1.7921141875289E+01
(PID.TID 0000.0001) %MON dynstat_sss_mean             =   3.4778276261645E+01
(PID.TID 0000.0001) %MON dynstat_sss_sd               =   9.8080685992599E-01
(PID.TID 0000.0001) %MON dynstat_sss_del2             =   1.6002145800520E-03
(PID.TID 0000.0001) %MON forcing_qnet_max             =   2.4491379394531E+03
(PID.TID 0000.0001) %MON forcing_qnet_min             =  -2.0034974365234E+03
(PID.TID 0000.0001) %MON forcing_qnet_mean            =  -1.6556396725846E+01
(PID.TID 0000.0001) %MON forcing_qnet_sd              =   2.1224036536586E+02
(PID.TID 0000.0001) %MON forcing_qnet_del2            =   5.8194829945021E-01
(PID.TID 0000.0001) %MON forcing_qsw_max              =   0.0000000000000E+00
(PID.TID 0000.0001) %MON forcing_qsw_min              =  -4.3004004899506E+02
(PID.TID 0000.0001) %MON forcing_qsw_mean             =  -8.0164957618002E+01
(PID.TID 0000.0001) %MON forcing_qsw_sd               =   1.1559798954620E+02
(PID.TID 0000.0001) %MON forcing_qsw_del2             =   1.8224700958805E-01
(PID.TID 0000.0001) %MON forcing_empmr_max            =   5.6618927046657E-03
(PID.TID 0000.0001) %MON forcing_empmr_min            =  -1.1747530102730E-01
(PID.TID 0000.0001) %MON forcing_empmr_mean           =  -9.4124200192333E-06
(PID.TID 0000.0001) %MON forcing_empmr_sd             =   4.6709896288742E-04
(PID.TID 0000.0001) %MON forcing_empmr_del2           =   2.9104543403621E-06
(PID.TID 0000.0001) %MON forcing_fu_max               =   8.3813750743866E-01
(PID.TID 0000.0001) %MON forcing_fu_min               =  -6.4431648851004E-01
(PID.TID 0000.0001) %MON forcing_fu_mean              =   1.0308764245445E-02
(PID.TID 0000.0001) %MON forcing_fu_sd                =   9.7426807567118E-02
(PID.TID 0000.0001) %MON forcing_fu_del2              =   1.3287142408188E-04
(PID.TID 0000.0001) %MON forcing_fv_max               =   1.0030682086945E+00
(PID.TID 0000.0001) %MON forcing_fv_min               =  -7.6945957599697E-01
(PID.TID 0000.0001) %MON forcing_fv_mean              =  -9.3500393401275E-03
(PID.TID 0000.0001) %MON forcing_fv_sd                =   1.0122120878273E-01
(PID.TID 0000.0001) %MON forcing_fv_del2              =   1.1314837156518E-04
(PID.TID 0000.0001) %MON trAdv_CFL_u_max              =   2.4522439301822E-02
(PID.TID 0000.0001) %MON trAdv_CFL_v_max              =   2.6066929171063E-02
(PID.TID 0000.0001) %MON trAdv_CFL_w_max              =   2.0628718898931E-01
(PID.TID 0000.0001) %MON advcfl_uvel_max              =   2.4184797375853E-02
(PID.TID 0000.0001) %MON advcfl_vvel_max              =   2.6066314182820E-02
(PID.TID 0000.0001) %MON advcfl_wvel_max              =   2.1478755759125E-01
(PID.TID 0000.0001) %MON advcfl_W_hf_max              =   2.2433367126197E-01
(PID.TID 0000.0001) %MON pe_b_mean                    =   6.3443847221213E-04
(PID.TID 0000.0001) %MON ke_max                       =   1.3510468743344E+00
(PID.TID 0000.0001) %MON ke_mean                      =   1.1758828161790E-03
(PID.TID 0000.0001) %MON ke_vol                       =   1.3350064351420E+18
(PID.TID 0000.0001) %MON vort_r_min                   =  -4.8651636501608E-05
(PID.TID 0000.0001) %MON vort_r_max                   =   4.7609922361360E-05
(PID.TID 0000.0001) %MON vort_a_mean                  =  -1.9725213241026E-05
(PID.TID 0000.0001) %MON vort_a_sd                    =   7.4541630638200E-05
(PID.TID 0000.0001) %MON vort_p_mean                  =  -2.1669263470803E-05
(PID.TID 0000.0001) %MON vort_p_sd                    =   9.3622992508192E-05
(PID.TID 0000.0001) %MON surfExpan_theta_mean         =  -1.0003875395525E-05
(PID.TID 0000.0001) %MON surfExpan_salt_mean          =  -3.1234471526267E-08
(PID.TID 0000.0001) // =======================================================
(PID.TID 0000.0001) // End MONITOR dynamic field statistics
(PID.TID 0000.0001) // =======================================================
 cg2d: Sum(rhs),rhsMax =   2.90541193821580E+01  3.00577613529179E+00
 cg2d: Sum(rhs),rhsMax =   2.87552117262476E+01  3.01440315178420E+00
 cg2d: Sum(rhs),rhsMax =   2.84688151667804E+01  3.02161325970018E+00
 cg2d: Sum(rhs),rhsMax =   2.81972213482213E+01  3.02731831521122E+00
 cg2d: Sum(rhs),rhsMax =   2.79501970404378E+01  3.03171874337478E+00
 cg2d: Sum(rhs),rhsMax =   2.77132301298841E+01  3.03522556169732E+00
 cg2d: Sum(rhs),rhsMax =   2.74818379267351E+01  3.03838563692904E+00
 cg2d: Sum(rhs),rhsMax =   2.72602159601647E+01  3.04157112186336E+00
(PID.TID 0000.0001)      cg2d_init_res =   6.67860651198693E-01
(PID.TID 0000.0001)      cg2d_iters(min,last) =      -1      23
(PID.TID 0000.0001)      cg2d_last_res =   6.17129120394320E-06
(PID.TID 0000.0001) // =======================================================
(PID.TID 0000.0001) // Begin MONITOR dynamic field statistics
(PID.TID 0000.0001) // =======================================================
(PID.TID 0000.0001) %MON time_tsnumber                =                    96
(PID.TID 0000.0001) %MON time_secondsf                =   8.6400000000000E+04
(PID.TID 0000.0001) %MON dynstat_eta_max              =   1.1129957389170E+00
(PID.TID 0000.0001) %MON dynstat_eta_min              =  -3.0578072929410E+00
(PID.TID 0000.0001) %MON dynstat_eta_mean             =  -9.4421916438470E-04
(PID.TID 0000.0001) %MON dynstat_eta_sd               =   6.8929584902263E-01
(PID.TID 0000.0001) %MON dynstat_eta_del2             =   1.6057205018209E-04
(PID.TID 0000.0001) %MON dynstat_uvel_max             =   1.5502633212569E+00
(PID.TID 0000.0001) %MON dynstat_uvel_min             =  -1.5165896770448E+00
(PID.TID 0000.0001) %MON dynstat_uvel_mean            =   8.1160559889298E-04
(PID.TID 0000.0001) %MON dynstat_uvel_sd              =   3.4494487013564E-02
(PID.TID 0000.0001) %MON dynstat_uvel_del2            =   6.9414319892169E-05
(PID.TID 0000.0001) %MON dynstat_vvel_max             =   1.4620085815978E+00
(PID.TID 0000.0001) %MON dynstat_vvel_min             =  -1.1240440304320E+00
(PID.TID 0000.0001) %MON dynstat_vvel_mean            =   1.5439784027234E-03
(PID.TID 0000.0001) %MON dynstat_vvel_sd              =   3.5907208240557E-02
(PID.TID 0000.0001) %MON dynstat_vvel_del2            =   7.1755649571786E-05
(PID.TID 0000.0001) %MON dynstat_wvel_max             =   9.9711368755587E-03
(PID.TID 0000.0001) %MON dynstat_wvel_min             =  -9.4541421317069E-03
(PID.TID 0000.0001) %MON dynstat_wvel_mean            =  -9.2532065662200E-23
(PID.TID 0000.0001) %MON dynstat_wvel_sd              =   4.1430087250619E-04
(PID.TID 0000.0001) %MON dynstat_wvel_del2            =   9.0625915115703E-07
(PID.TID 0000.0001) %MON dynstat_theta_max            =   3.2556847832406E+01
(PID.TID 0000.0001) %MON dynstat_theta_min            =  -2.3565816898255E+00
(PID.TID 0000.0001) %MON dynstat_theta_mean           =   3.5903383478858E+00
(PID.TID 0000.0001) %MON dynstat_theta_sd             =   4.4237133294045E+00
(PID.TID 0000.0001) %MON dynstat_theta_del2           =   2.2815998480917E-04
(PID.TID 0000.0001) %MON dynstat_salt_max             =   4.0711484541624E+01
(PID.TID 0000.0001) %MON dynstat_salt_min             =   1.6830065752735E+01
(PID.TID 0000.0001) %MON dynstat_salt_mean            =   3.4725441306152E+01
(PID.TID 0000.0001) %MON dynstat_salt_sd              =   3.6769543695398E-01
(PID.TID 0000.0001) %MON dynstat_salt_del2            =   9.3310774366935E-05
(PID.TID 0000.0001) %MON dynstat_sst_max              =   3.2538101262153E+01
(PID.TID 0000.0001) %MON dynstat_sst_min              =  -2.3565816898255E+00
(PID.TID 0000.0001) %MON dynstat_sst_mean             =   1.8261879908320E+01
(PID.TID 0000.0001) %MON dynstat_sst_sd               =   1.0229636653796E+01
(PID.TID 0000.0001) %MON dynstat_sst_del2             =   2.0133630601095E-03
(PID.TID 0000.0001) %MON dynstat_sss_max              =   3.9183241439003E+01
(PID.TID 0000.0001) %MON dynstat_sss_min              =   1.6830065752735E+01
(PID.TID 0000.0001) %MON dynstat_sss_mean             =   3.4778453464607E+01
(PID.TID 0000.0001) %MON dynstat_sss_sd               =   9.8201084754287E-01
(PID.TID 0000.0001) %MON dynstat_sss_del2             =   1.5761966026324E-03
(PID.TID 0000.0001) %MON forcing_qnet_max             =   1.3043663330078E+03
(PID.TID 0000.0001) %MON forcing_qnet_min             =  -1.1488826203287E+03
(PID.TID 0000.0001) %MON forcing_qnet_mean            =  -2.8887265770861E+01
(PID.TID 0000.0001) %MON forcing_qnet_sd              =   2.2376940752236E+02
(PID.TID 0000.0001) %MON forcing_qnet_del2            =   5.0994365443975E-01
(PID.TID 0000.0001) %MON forcing_qsw_max              =   0.0000000000000E+00
(PID.TID 0000.0001) %MON forcing_qsw_min              =  -4.1880267185036E+02
(PID.TID 0000.0001) %MON forcing_qsw_mean             =  -8.7679223870073E+01
(PID.TID 0000.0001) %MON forcing_qsw_sd               =   1.2133821369039E+02
(PID.TID 0000.0001) %MON forcing_qsw_del2             =   1.9309495739421E-01
(PID.TID 0000.0001) %MON forcing_empmr_max            =   4.6748863533139E-03
(PID.TID 0000.0001) %MON forcing_empmr_min            =  -9.6495725214481E-02
(PID.TID 0000.0001) %MON forcing_empmr_mean           =  -7.4681087110784E-06
(PID.TID 0000.0001) %MON forcing_empmr_sd             =   3.8755130908073E-04
(PID.TID 0000.0001) %MON forcing_empmr_del2           =   2.3794422575220E-06
(PID.TID 0000.0001) %MON forcing_fu_max               =   8.0308252573013E-01
(PID.TID 0000.0001) %MON forcing_fu_min               =  -6.4163324098539E-01
(PID.TID 0000.0001) %MON forcing_fu_mean              =   9.9183754055209E-03
(PID.TID 0000.0001) %MON forcing_fu_sd                =   9.6797212695725E-02
(PID.TID 0000.0001) %MON forcing_fu_del2              =   1.3102327448877E-04
(PID.TID 0000.0001) %MON forcing_fv_max               =   1.0123048424721E+00
(PID.TID 0000.0001) %MON forcing_fv_min               =  -7.3256901925019E-01
(PID.TID 0000.0001) %MON forcing_fv_mean              =  -9.5943707433684E-03
(PID.TID 0000.0001) %MON forcing_fv_sd                =   1.0099103289681E-01
(PID.TID 0000.0001) %MON forcing_fv_del2              =   1.1273739082345E-04
(PID.TID 0000.0001) %MON trAdv_CFL_u_max              =   2.5428956333977E-02
(PID.TID 0000.0001) %MON trAdv_CFL_v_max              =   2.5952586517912E-02
(PID.TID 0000.0001) %MON trAdv_CFL_w_max              =   1.7429164777963E-01
(PID.TID 0000.0001) %MON advcfl_uvel_max              =   2.5091847993325E-02
(PID.TID 0000.0001) %MON advcfl_vvel_max              =   2.5951974227316E-02
(PID.TID 0000.0001) %MON advcfl_wvel_max              =   1.8132499245764E-01
(PID.TID 0000.0001) %MON advcfl_W_hf_max              =   1.8938388101132E-01
(PID.TID 0000.0001) %MON pe_b_mean                    =   6.2498218102724E-04
(PID.TID 0000.0001) %MON ke_max                       =   1.3444324486143E+00
(PID.TID 0000.0001) %MON ke_mean                      =   1.1969212041566E-03
(PID.TID 0000.0001) %MON ke_vol                       =   1.3350064351420E+18
(PID.TID 0000.0001) %MON vort_r_min                   =  -5.0466003378851E-05
(PID.TID 0000.0001) %MON vort_r_max                   =   4.8921731893451E-05
(PID.TID 0000.0001) %MON vort_a_mean                  =  -1.9725213241026E-05
(PID.TID 0000.0001) %MON vort_a_sd                    =   7.4541492333656E-05
(PID.TID 0000.0001) %MON vort_p_mean                  =  -2.1669263470803E-05
(PID.TID 0000.0001) %MON vort_p_sd                    =   9.3623360438284E-05
(PID.TID 0000.0001) %MON surfExpan_theta_mean         =  -8.6004643181485E-06
(PID.TID 0000.0001) %MON surfExpan_salt_mean          =  -9.7119553085280E-08
(PID.TID 0000.0001) // =======================================================
(PID.TID 0000.0001) // End MONITOR dynamic field statistics
(PID.TID 0000.0001) // =======================================================
(PID.TID 0000.0001) %CHECKPOINT        96 ckptB
 cg2d: Sum(rhs),rhsMax =   2.70443157378479E+01  3.04499938894410E+00
