(PID.TID 0000.0001) 
(PID.TID 0000.0001) // ======================================================
(PID.TID 0000.0001) //                      MITgcm UV
(PID.TID 0000.0001) //                      =========
(PID.TID 0000.0001) // ======================================================
(PID.TID 0000.0001) // execution environment starting up...
(PID.TID 0000.0001) 
(PID.TID 0000.0001) // MITgcmUV version:  checkpoint67f
(PID.TID 0000.0001) // Build user:        heracles
(PID.TID 0000.0001) // Build host:        heracles
(PID.TID 0000.0001) // Build date:        Mon Dec  3 17:54:51 EST 2018
(PID.TID 0000.0001) 
(PID.TID 0000.0001) // =======================================================
(PID.TID 0000.0001) // Execution Environment parameter file "eedata"
(PID.TID 0000.0001) // =======================================================
(PID.TID 0000.0001) ># Example "eedata" file
(PID.TID 0000.0001) ># Lines beginning "#" are comments
(PID.TID 0000.0001) ># nTx - No. threads per process in X
(PID.TID 0000.0001) ># nTy - No. threads per process in Y
(PID.TID 0000.0001) > &EEPARMS
(PID.TID 0000.0001) > useCubedSphereExchange=.TRUE.,
(PID.TID 0000.0001) > nTx=1,
(PID.TID 0000.0001) > nTy=1,
(PID.TID 0000.0001) >#debugMode=.TRUE.,
(PID.TID 0000.0001) > /
(PID.TID 0000.0001) ># Note: Some systems use & as the namelist terminator (as shown here).
(PID.TID 0000.0001) >#       Other systems use a / character.
(PID.TID 0000.0001) 
(PID.TID 0000.0001) // =======================================================
(PID.TID 0000.0001) // Computational Grid Specification ( see files "SIZE.h" )
(PID.TID 0000.0001) //                                  ( and "eedata"       )
(PID.TID 0000.0001) // =======================================================
(PID.TID 0000.0001)      nPx =    6 ; /* No. processes in X */
(PID.TID 0000.0001)      nPy =    1 ; /* No. processes in Y */
(PID.TID 0000.0001)      nSx =    1 ; /* No. tiles in X per process */
(PID.TID 0000.0001)      nSy =    1 ; /* No. tiles in Y per process */
(PID.TID 0000.0001)      sNx =   32 ; /* Tile size in X */
(PID.TID 0000.0001)      sNy =   32 ; /* Tile size in Y */
(PID.TID 0000.0001)      OLx =    4 ; /* Tile overlap distance in X */
(PID.TID 0000.0001)      OLy =    4 ; /* Tile overlap distance in Y */
(PID.TID 0000.0001)      nTx =    1 ; /* No. threads in X per process */
(PID.TID 0000.0001)      nTy =    1 ; /* No. threads in Y per process */
(PID.TID 0000.0001)       Nr =   15 ; /* No. levels in the vertical   */
(PID.TID 0000.0001)       Nx =  192 ; /* Total domain size in X ( = nPx*nSx*sNx ) */
(PID.TID 0000.0001)       Ny =   32 ; /* Total domain size in Y ( = nPy*nSy*sNy ) */
(PID.TID 0000.0001)   nTiles =    1 ; /* Total no. tiles per process ( = nSx*nSy ) */
(PID.TID 0000.0001)   nProcs =    6 ; /* Total no. processes ( = nPx*nPy ) */
(PID.TID 0000.0001) nThreads =    1 ; /* Total no. threads per process ( = nTx*nTy ) */
(PID.TID 0000.0001) usingMPI =    T ; /* Flag used to control whether MPI is in use */
(PID.TID 0000.0001)                   /*  note: To execute a program with MPI calls */
(PID.TID 0000.0001)                   /*  it must be launched appropriately e.g     */
(PID.TID 0000.0001)                   /*  "mpirun -np 64 ......"                    */
(PID.TID 0000.0001) useCoupler=    F ;/* Flag used to control communications with   */
(PID.TID 0000.0001)                   /*  other model components, through a coupler */
(PID.TID 0000.0001) useNest2W_parent =    F ;/* Control 2-W Nesting comm */
(PID.TID 0000.0001) useNest2W_child  =    F ;/* Control 2-W Nesting comm */
(PID.TID 0000.0001) debugMode =    F ; /* print debug msg. (sequence of S/R calls)  */
(PID.TID 0000.0001) printMapIncludesZeros=    F ; /* print zeros in Std.Output maps */
(PID.TID 0000.0001) maxLengthPrt1D=   65 /* maxLength of 1D array printed to StdOut */
(PID.TID 0000.0001) 
(PID.TID 0000.0001) ======= Starting MPI parallel Run =========
(PID.TID 0000.0001)  My Processor Name (len:  8 ) = heracles
(PID.TID 0000.0001)  Located at (  0,  0) on processor grid (0:  5,0:  0)
(PID.TID 0000.0001)  Origin at  (     1,     1) on global grid (1:   192,1:    32)
(PID.TID 0000.0001)  North neighbor = processor 0000
(PID.TID 0000.0001)  South neighbor = processor 0000
(PID.TID 0000.0001)   East neighbor = processor 0001
(PID.TID 0000.0001)   West neighbor = processor 0005
(PID.TID 0000.0001) // ======================================================
(PID.TID 0000.0001) // Mapping of tiles to threads
(PID.TID 0000.0001) // ======================================================
(PID.TID 0000.0001) // -o- Thread   1, tiles (   1:   1,   1:   1)
(PID.TID 0000.0001) 
(PID.TID 0000.0001) W2_READPARMS: file data.exch2 not found
(PID.TID 0000.0001) => use W2_EXCH2 default: regular 6-facets Cube
(PID.TID 0000.0001) W2_useE2ioLayOut=    T ;/* T: use Exch2 glob IO map; F: use model default */
(PID.TID 0000.0001) W2_mapIO        =  -1 ; /* select option for Exch2 global-IO map */
(PID.TID 0000.0001) W2_printMsg     =  -1 ; /* select option for printing information */
(PID.TID 0000.0001) ===== Start setting W2 TOPOLOGY:
(PID.TID 0000.0001)  write to log-file: w2_tile_topology.0000.log
(PID.TID 0000.0001) =====       setting W2 TOPOLOGY: Done
(PID.TID 0000.0001) 
(PID.TID 0000.0001)  INI_PARMS: opening model parameter file "data"
(PID.TID 0000.0001)  OPEN_COPY_DATA_FILE: opening file data
(PID.TID 0000.0001) // =======================================================
(PID.TID 0000.0001) // Parameter file "data"
(PID.TID 0000.0001) // =======================================================
(PID.TID 0000.0001) ># ====================
(PID.TID 0000.0001) ># | Model parameters |
(PID.TID 0000.0001) ># ====================
(PID.TID 0000.0001) >#
(PID.TID 0000.0001) ># Continuous equation parameters
(PID.TID 0000.0001) > &PARM01
(PID.TID 0000.0001) > tRef=15*20.,
(PID.TID 0000.0001) > sRef=15*35.,
(PID.TID 0000.0001) > viscAh =3.E5,
(PID.TID 0000.0001) > viscAr =1.E-3,
(PID.TID 0000.0001) > diffKrT=3.E-5,
(PID.TID 0000.0001) > diffKrS=3.E-5,
(PID.TID 0000.0001) > ivdc_kappa=10.,
(PID.TID 0000.0001) > implicitDiffusion=.TRUE.,
(PID.TID 0000.0001) > rhonil=1035.,
(PID.TID 0000.0001) > rhoConstFresh=1000.,
(PID.TID 0000.0001) > eosType='JMD95Z',
(PID.TID 0000.0001) > staggerTimeStep=.TRUE.,
(PID.TID 0000.0001) > vectorInvariantMomentum=.TRUE.,
(PID.TID 0000.0001) > implicitFreeSurface=.TRUE.,
(PID.TID 0000.0001) > exactConserv=.TRUE.,
(PID.TID 0000.0001) > select_rStar=2,
(PID.TID 0000.0001) > nonlinFreeSurf=4,
(PID.TID 0000.0001) > useRealFreshWaterFlux=.TRUE.,
(PID.TID 0000.0001) >#allowFreezing=.TRUE.,
(PID.TID 0000.0001) > hFacMin=.1,
(PID.TID 0000.0001) > hFacMinDr=20.,
(PID.TID 0000.0001) > readBinaryPrec=64,
(PID.TID 0000.0001) > useSingleCpuIo=.TRUE.,
(PID.TID 0000.0001) > debugLevel=2,
(PID.TID 0000.0001) > /
(PID.TID 0000.0001) >
(PID.TID 0000.0001) ># Elliptic solver parameters
(PID.TID 0000.0001) > &PARM02
(PID.TID 0000.0001) > /
(PID.TID 0000.0001) >
(PID.TID 0000.0001) ># Time stepping parameters
(PID.TID 0000.0001) > &PARM03
(PID.TID 0000.0001) > nIter0           = 0,
(PID.TID 0000.0001) > nTimeSteps       = 96,
(PID.TID 0000.0001) > deltaT           = 900.,
(PID.TID 0000.0001) > monitorFreq      = 1.,
(PID.TID 0000.0001) > abEps            = 0.1,
(PID.TID 0000.0001) > tracForcingOutAB = 1,
(PID.TID 0000.0001) > pickupStrictlyMatch=.FALSE.,
(PID.TID 0000.0001) > /
(PID.TID 0000.0001) >
(PID.TID 0000.0001) ># Gridding parameters
(PID.TID 0000.0001) > &PARM04
(PID.TID 0000.0001) > usingCurvilinearGrid=.TRUE.,
(PID.TID 0000.0001) > horizGridFile='grid_cs32',
(PID.TID 0000.0001) > delR= 50., 70., 100., 140., 190.,
(PID.TID 0000.0001) >       240., 290., 340., 390., 440.,
(PID.TID 0000.0001) >       490., 540., 590., 640., 690.,
(PID.TID 0000.0001) > /
(PID.TID 0000.0001) >
(PID.TID 0000.0001) ># Input datasets
(PID.TID 0000.0001) > &PARM05
(PID.TID 0000.0001) > bathyFile      ='bathy_Hmin50.bin',
(PID.TID 0000.0001) > /
(PID.TID 0000.0001) 
(PID.TID 0000.0001)  INI_PARMS ; starts to read PARM01
(PID.TID 0000.0001)  INI_PARMS ; read PARM01 : OK
(PID.TID 0000.0001)  INI_PARMS ; starts to read PARM02
(PID.TID 0000.0001)  INI_PARMS ; read PARM02 : OK
(PID.TID 0000.0001)  INI_PARMS ; starts to read PARM03
(PID.TID 0000.0001)  INI_PARMS ; read PARM03 : OK
(PID.TID 0000.0001)  INI_PARMS ; starts to read PARM04
(PID.TID 0000.0001)  INI_PARMS ; read PARM04 : OK
(PID.TID 0000.0001)  INI_PARMS ; starts to read PARM05
(PID.TID 0000.0001)  INI_PARMS ; read PARM05 : OK
(PID.TID 0000.0001)  INI_PARMS: finished reading file "data"
(PID.TID 0000.0001)  PACKAGES_BOOT: opening data.pkg
(PID.TID 0000.0001)  OPEN_COPY_DATA_FILE: opening file data.pkg
(PID.TID 0000.0001) // =======================================================
(PID.TID 0000.0001) // Parameter file "data.pkg"
(PID.TID 0000.0001) // =======================================================
(PID.TID 0000.0001) ># Packages
(PID.TID 0000.0001) > &PACKAGES
(PID.TID 0000.0001) > useGMRedi=.TRUE.,
(PID.TID 0000.0001) > useSEAICE=.TRUE.,
(PID.TID 0000.0001) > useDiagnostics=.TRUE.,
(PID.TID 0000.0001) > /
(PID.TID 0000.0001) 
(PID.TID 0000.0001)  PACKAGES_BOOT: finished reading data.pkg
(PID.TID 0000.0001)  PACKAGES_BOOT: On/Off package Summary
 --------  pkgs with a standard "usePKG" On/Off switch in "data.pkg":  --------
 pkg/gmredi               compiled   and   used ( useGMRedi                = T )
 pkg/seaice               compiled   and   used ( useSEAICE                = T )
 pkg/diagnostics          compiled   and   used ( useDiagnostics           = T )
 -------- pkgs without standard "usePKG" On/Off switch in "data.pkg":  --------
 pkg/generic_advdiff      compiled   and   used ( useGAD                   = T )
 pkg/mom_common           compiled   and   used ( momStepping              = T )
 pkg/mom_vecinv           compiled   and   used ( +vectorInvariantMomentum = T )
 pkg/mom_fluxform         compiled but not used ( & not vectorInvariantMom = F )
 pkg/monitor              compiled   and   used ( monitorFreq > 0.         = T )
 pkg/timeave              compiled but not used ( taveFreq > 0.            = F )
 pkg/debug                compiled but not used ( debugMode                = F )
 pkg/exch2                compiled   and   used
 pkg/rw                   compiled   and   used
 pkg/mdsio                compiled   and   used
(PID.TID 0000.0001)  PACKAGES_BOOT: End of package Summary
(PID.TID 0000.0001) 
(PID.TID 0000.0001)  GM_READPARMS: opening data.gmredi
(PID.TID 0000.0001)  OPEN_COPY_DATA_FILE: opening file data.gmredi
(PID.TID 0000.0001) // =======================================================
(PID.TID 0000.0001) // Parameter file "data.gmredi"
(PID.TID 0000.0001) // =======================================================
(PID.TID 0000.0001) ># GM+Redi package parameters:
(PID.TID 0000.0001) >
(PID.TID 0000.0001) >#-from MOM :
(PID.TID 0000.0001) ># GM_background_K: 	G & Mc.W  diffusion coefficient
(PID.TID 0000.0001) ># GM_maxSlope    :	max slope of isopycnals
(PID.TID 0000.0001) ># GM_Scrit       :	transition for scaling diffusion coefficient
(PID.TID 0000.0001) ># GM_Sd          :	half width scaling for diffusion coefficient
(PID.TID 0000.0001) ># GM_taper_scheme:	slope clipping or one of the tapering schemes
(PID.TID 0000.0001) ># GM_Kmin_horiz  :	horizontal diffusion minimum value
(PID.TID 0000.0001) >
(PID.TID 0000.0001) >#-Option parameters (needs to "define" options in GMREDI_OPTIONS.h")
(PID.TID 0000.0001) ># GM_isopycK     :	isopycnal diffusion coefficient (default=GM_background_K)
(PID.TID 0000.0001) ># GM_AdvForm     :	turn on GM Advective form       (default=Skew flux form)
(PID.TID 0000.0001) >
(PID.TID 0000.0001) > &GM_PARM01
(PID.TID 0000.0001) >  GM_background_K    = 800.,
(PID.TID 0000.0001) >  GM_taper_scheme    = 'gkw91',
(PID.TID 0000.0001) >  GM_maxSlope        = 1.e-2,
(PID.TID 0000.0001) >  GM_Kmin_horiz      = 50.,
(PID.TID 0000.0001) >  GM_Scrit           = 4.e-3,
(PID.TID 0000.0001) >  GM_Sd              = 1.e-3,
(PID.TID 0000.0001) ># GM_Visbeck_alpha   = 0.,
(PID.TID 0000.0001) ># GM_Visbeck_length  = 2.e+5,
(PID.TID 0000.0001) ># GM_Visbeck_depth   = 1.e+3,
(PID.TID 0000.0001) ># GM_Visbeck_maxval_K= 2.5e+3,
(PID.TID 0000.0001) > /
(PID.TID 0000.0001) >
(PID.TID 0000.0001) 
(PID.TID 0000.0001)  GM_READPARMS: finished reading data.gmredi
(PID.TID 0000.0001) 
(PID.TID 0000.0001)  SEAICE_READPARMS: opening data.seaice
(PID.TID 0000.0001)  OPEN_COPY_DATA_FILE: opening file data.seaice
(PID.TID 0000.0001) // =======================================================
(PID.TID 0000.0001) // Parameter file "data.seaice"
(PID.TID 0000.0001) // =======================================================
(PID.TID 0000.0001) ># SEAICE parameters
(PID.TID 0000.0001) > &SEAICE_PARM01
(PID.TID 0000.0001) > usePW79thermodynamics= .FALSE.,
(PID.TID 0000.0001) ># SEAICEuseDYNAMICS = .FALSE.,
(PID.TID 0000.0001) >  SEAICEupdateOceanStress=.FALSE.,
(PID.TID 0000.0001) ># SEAICEadvHeff  = .FALSE.,
(PID.TID 0000.0001) ># SEAICEadvArea  = .FALSE.,
(PID.TID 0000.0001) ># SEAICEadvSnow  = .FALSE.,
(PID.TID 0000.0001) ># SEAICEadvSalt  = .FALSE.,
(PID.TID 0000.0001) >#--
(PID.TID 0000.0001) > SEAICE_strength    = 2.6780e+04,
(PID.TID 0000.0001) > OCEAN_drag         = 8.1541e-04,
(PID.TID 0000.0001) ># SEAICE_waterDrag   = 5.3508,
(PID.TID 0000.0001) >#- waterDrag no longer includes rhoConst factor:
(PID.TID 0000.0001) ># SEAICE_waterDrag   = 5.16985507246376811E-3,
(PID.TID 0000.0001) >  SEAICE_waterDrag   = 5.169855072463768E-3,
(PID.TID 0000.0001) >#- old defaults
(PID.TID 0000.0001) >  SEAICEscaleSurfStress = .FALSE.,
(PID.TID 0000.0001) >  SEAICEaddSnowMass     = .FALSE.,
(PID.TID 0000.0001) >  SEAICE_useMultDimSnow = .FALSE.,
(PID.TID 0000.0001) >  SEAICE_Olx = 0,
(PID.TID 0000.0001) >  SEAICE_Oly = 0,
(PID.TID 0000.0001) >  SEAICEetaZmethod = 0,
(PID.TID 0000.0001) >  SEAICE_drag = 2.E-3,
(PID.TID 0000.0001) >#--
(PID.TID 0000.0001) > SEAICE_no_Slip     = .FALSE.,
(PID.TID 0000.0001) > LSR_ERROR          = 1.E-4,
(PID.TID 0000.0001) > SEAICElinearIterMax=  500,
(PID.TID 0000.0001) >#LSR_mixIniGuess    = 1,
(PID.TID 0000.0001) > SEAICEadvScheme    = 77,
(PID.TID 0000.0001) > SEAICEwriteState   = .TRUE.,
(PID.TID 0000.0001) >#SEAICE_monFreq = 1800.,
(PID.TID 0000.0001) ># AreaFile  = 'const100.bin',
(PID.TID 0000.0001) ># HeffFile  = 'const+20.bin',
(PID.TID 0000.0001) ># HsnowFile = 'const_00.bin',
(PID.TID 0000.0001) > /
(PID.TID 0000.0001) >
(PID.TID 0000.0001) > &SEAICE_PARM03
(PID.TID 0000.0001) > /
(PID.TID 0000.0001) 
(PID.TID 0000.0001)  SEAICE_READPARMS: finished reading data.seaice
(PID.TID 0000.0001)  DIAGNOSTICS_READPARMS: opening data.diagnostics
(PID.TID 0000.0001)  OPEN_COPY_DATA_FILE: opening file data.diagnostics
(PID.TID 0000.0001) // =======================================================
(PID.TID 0000.0001) // Parameter file "data.diagnostics"
(PID.TID 0000.0001) // =======================================================
(PID.TID 0000.0001) ># Diagnostic Package Choices
(PID.TID 0000.0001) >#--------------------
(PID.TID 0000.0001) >#  dumpAtLast (logical): always write output at the end of simulation (default=F)
(PID.TID 0000.0001) >#  diag_mnc   (logical): write to NetCDF files (default=useMNC)
(PID.TID 0000.0001) >#--for each output-stream:
(PID.TID 0000.0001) >#  fileName(n) : prefix of the output file name (max 80c long) for outp.stream n
(PID.TID 0000.0001) >#  frequency(n):< 0 : write snap-shot output every |frequency| seconds
(PID.TID 0000.0001) >#               > 0 : write time-average output every frequency seconds
(PID.TID 0000.0001) >#  timePhase(n)     : write at time = timePhase + multiple of |frequency|
(PID.TID 0000.0001) >#    averagingFreq  : frequency (in s) for periodic averaging interval
(PID.TID 0000.0001) >#    averagingPhase : phase     (in s) for periodic averaging interval
(PID.TID 0000.0001) >#    repeatCycle    : number of averaging intervals in 1 cycle
(PID.TID 0000.0001) >#  levels(:,n) : list of levels to write to file (Notes: declared as REAL)
(PID.TID 0000.0001) >#                when this entry is missing, select all common levels of this list
(PID.TID 0000.0001) >#  fields(:,n) : list of selected diagnostics fields (8.c) in outp.stream n
(PID.TID 0000.0001) >#                (see "available_diagnostics.log" file for the full list of diags)
(PID.TID 0000.0001) >#  missing_value(n) : missing value for real-type fields in output file "n"
(PID.TID 0000.0001) >#  fileFlags(n)     : specific code (8c string) for output file "n"
(PID.TID 0000.0001) >#--------------------
(PID.TID 0000.0001) ># This example dumps EXF diagnostics as snapshot after 10 time-steps
(PID.TID 0000.0001) ># Note: EXF air-sea fluxes over Sea-Ice are wrong
(PID.TID 0000.0001) > &DIAGNOSTICS_LIST
(PID.TID 0000.0001) >   dumpAtLast  = .TRUE.,
(PID.TID 0000.0001) >#--
(PID.TID 0000.0001) >    fields(1:10,1)  = 'oceQnet ','oceQsw  ','oceFWflx','oceSflux',
(PID.TID 0000.0001) >                      'oceTAUX ','oceTAUY ',
(PID.TID 0000.0001) >                      'THETA   ','SALT    ','UVEL    ', 'VVEL    ',
(PID.TID 0000.0001) >   fileName(1) = 'surfDiag',
(PID.TID 0000.0001) >  frequency(1) = 43200.,
(PID.TID 0000.0001) >
(PID.TID 0000.0001) >  fields(1:8,2)  = 'SIarea  ','SIheff  ','SIhsnow ','sIceLoad',
(PID.TID 0000.0001) >                   'SIuice  ','SIvice  ','SItaux  ','SItauy  ',
(PID.TID 0000.0001) >   fileName(2) = 'iceDiag',
(PID.TID 0000.0001) >  frequency(2) =  43200.,
(PID.TID 0000.0001) >  missing_value(2) = -999.,
(PID.TID 0000.0001) >
(PID.TID 0000.0001) >  fields(1:9,3)  = 'SIarea  ','SIheff  ','SIhsnow ','sIceLoad',
(PID.TID 0000.0001) >                   'SIuice  ','SIvice  ','SItaux  ','SItauy  ',
(PID.TID 0000.0001) >                   'CPLoWGHT',
(PID.TID 0000.0001) >   fileName(3) = 'iceInst',
(PID.TID 0000.0001) >  frequency(3) = -3600.,
(PID.TID 0000.0001) >  timePhase(3) =  0.,
(PID.TID 0000.0001) >  missing_value(3) = -999.,
(PID.TID 0000.0001) >
(PID.TID 0000.0001) >  fields(1:11,4) = 'SIareaN ','SIheffN ','SIhsnowN','SIqSnow ',
(PID.TID 0000.0001) >                   'SImeltPd','SItIces ','SIiceAge',
(PID.TID 0000.0001) >                   'SI_dArea','SI_dHeff','SI_dHsnw','SI_dQSnw',
(PID.TID 0000.0001) >#                  'SI_dMPnd',
(PID.TID 0000.0001) >#                  'SI_dTIce','SI_dIcAg',
(PID.TID 0000.0001) >   fileName(4) = 'iceNcat',
(PID.TID 0000.0001) >  frequency(4) = -3600.,
(PID.TID 0000.0001) >  timePhase(4) =  0.,
(PID.TID 0000.0001) >  fileFlags(4) = 'D       ',
(PID.TID 0000.0001) >
(PID.TID 0000.0001) >  fields(1:2,5)  = 'SIqIce  ',
(PID.TID 0000.0001) >                   'SI_dQIce',
(PID.TID 0000.0001) >   fileName(5) = 'iceEnerg',
(PID.TID 0000.0001) >  frequency(5) = -3600.,
(PID.TID 0000.0001) >  timePhase(5) =  0.,
(PID.TID 0000.0001) > /
(PID.TID 0000.0001) >
(PID.TID 0000.0001) >#--------------------
(PID.TID 0000.0001) ># Parameter for Diagnostics of per level statistics:
(PID.TID 0000.0001) >#--------------------
(PID.TID 0000.0001) >#  diagSt_mnc (logical): write stat-diags to NetCDF files (default=diag_mnc)
(PID.TID 0000.0001) >#  diagSt_regMaskFile : file containing the region-mask to read-in
(PID.TID 0000.0001) >#  nSetRegMskFile   : number of region-mask sets within the region-mask file
(PID.TID 0000.0001) >#  set_regMask(i)   : region-mask set-index that identifies the region "i"
(PID.TID 0000.0001) >#  val_regMask(i)   : region "i" identifier value in the region mask
(PID.TID 0000.0001) >#--for each output-stream:
(PID.TID 0000.0001) >#  stat_fName(n) : prefix of the output file name (max 80c long) for outp.stream n
(PID.TID 0000.0001) >#  stat_freq(n):< 0 : write snap-shot output every |stat_freq| seconds
(PID.TID 0000.0001) >#               > 0 : write time-average output every stat_freq seconds
(PID.TID 0000.0001) >#  stat_phase(n)    : write at time = stat_phase + multiple of |stat_freq|
(PID.TID 0000.0001) >#  stat_region(:,n) : list of "regions" (default: 1 region only=global)
(PID.TID 0000.0001) >#  stat_fields(:,n) : list of selected diagnostics fields (8.c) in outp.stream n
(PID.TID 0000.0001) >#                (see "available_diagnostics.log" file for the full list of diags)
(PID.TID 0000.0001) >#--------------------
(PID.TID 0000.0001) > &DIAG_STATIS_PARMS
(PID.TID 0000.0001) > stat_fields(1:21,1)  = 'SIarea  ','SIheff  ','SIhsnow ','sIceLoad',
(PID.TID 0000.0001) >                        'SIuice  ','SIvice  ','SItaux  ','SItauy  ',
(PID.TID 0000.0001) >                        'SIareaN ','SIheffN ','SIhsnowN',
(PID.TID 0000.0001) >                        'SIqSnow ','SIqIce  ','SImeltPd',
(PID.TID 0000.0001) >                        'SItIces ','SIiceAge',
(PID.TID 0000.0001) >                        'SI_dArea','SI_dHeff','SI_dHsnw',
(PID.TID 0000.0001) >                        'SI_dQSnw','SI_dQIce',
(PID.TID 0000.0001) >#                       'SI_dMPnd','SI_dTIce','SI_dIcAg',
(PID.TID 0000.0001) >  stat_fName(1) = 'iceStDiag',
(PID.TID 0000.0001) >   stat_freq(1) = 3600.,
(PID.TID 0000.0001) ># stat_phase(1) = 1800.,
(PID.TID 0000.0001) > /
(PID.TID 0000.0001) 
(PID.TID 0000.0001) S/R DIAGNOSTICS_READPARMS, read namelist "diagnostics_list": start
(PID.TID 0000.0001) S/R DIAGNOSTICS_READPARMS, read namelist "diagnostics_list": OK
(PID.TID 0000.0001) S/R DIAGNOSTICS_READPARMS, read namelist "DIAG_STATIS_PARMS": start
(PID.TID 0000.0001) S/R DIAGNOSTICS_READPARMS, read namelist "DIAG_STATIS_PARMS": OK
(PID.TID 0000.0001)  DIAGNOSTICS_READPARMS: global parameter summary:
(PID.TID 0000.0001)  dumpAtLast = /* always write time-ave diags at the end */
(PID.TID 0000.0001)                   T
(PID.TID 0000.0001)     ;
(PID.TID 0000.0001)  diag_mnc =   /* write NetCDF output files */
(PID.TID 0000.0001)                   F
(PID.TID 0000.0001)     ;
(PID.TID 0000.0001)  useMissingValue = /* put MissingValue where mask = 0 */
(PID.TID 0000.0001)                   F
(PID.TID 0000.0001)     ;
(PID.TID 0000.0001)  diagCG_maxIters = /* max number of iters in diag_cg2d */
(PID.TID 0000.0001)                     150
(PID.TID 0000.0001)     ;
(PID.TID 0000.0001)  diagCG_resTarget = /* residual target for diag_cg2d */
(PID.TID 0000.0001)                 1.000000000000000E-07
(PID.TID 0000.0001)     ;
(PID.TID 0000.0001)  diagCG_pcOffDFac = /* preconditioner off-diagonal factor */
(PID.TID 0000.0001)                 9.611687812379854E-01
(PID.TID 0000.0001)     ;
(PID.TID 0000.0001) -----------------------------------------------------
(PID.TID 0000.0001)  DIAGNOSTICS_READPARMS: active diagnostics summary:
(PID.TID 0000.0001) -----------------------------------------------------
(PID.TID 0000.0001) Creating Output Stream: surfDiag
(PID.TID 0000.0001) Output Frequency:      43200.000000 ; Phase:           0.000000
(PID.TID 0000.0001)  Averaging Freq.:      43200.000000 , Phase:           0.000000 , Cycle:   1
(PID.TID 0000.0001)  missing value: -9.990000000000E+02
(PID.TID 0000.0001)  Levels:    will be set later
(PID.TID 0000.0001)  Fields:    oceQnet  oceQsw   oceFWflx oceSflux oceTAUX  oceTAUY  THETA    SALT     UVEL     VVEL
(PID.TID 0000.0001) Creating Output Stream: iceDiag
(PID.TID 0000.0001) Output Frequency:      43200.000000 ; Phase:           0.000000
(PID.TID 0000.0001)  Averaging Freq.:      43200.000000 , Phase:           0.000000 , Cycle:   1
(PID.TID 0000.0001)  missing value: -9.990000000000E+02
(PID.TID 0000.0001)  Levels:    will be set later
(PID.TID 0000.0001)  Fields:    SIarea   SIheff   SIhsnow  sIceLoad SIuice   SIvice   SItaux   SItauy
(PID.TID 0000.0001) Creating Output Stream: iceInst
(PID.TID 0000.0001) Output Frequency:      -3600.000000 ; Phase:           0.000000
(PID.TID 0000.0001)  Averaging Freq.:          0.000000 , Phase:           0.000000 , Cycle:   1
(PID.TID 0000.0001)  missing value: -9.990000000000E+02
(PID.TID 0000.0001)  Levels:    will be set later
(PID.TID 0000.0001)  Fields:    SIarea   SIheff   SIhsnow  sIceLoad SIuice   SIvice   SItaux   SItauy   CPLoWGHT
(PID.TID 0000.0001) Creating Output Stream: iceNcat
(PID.TID 0000.0001) Output Frequency:      -3600.000000 ; Phase:           0.000000
(PID.TID 0000.0001)  Averaging Freq.:          0.000000 , Phase:           0.000000 , Cycle:   1
(PID.TID 0000.0001)  missing value: -9.990000000000E+02 ; F-Flags="D       "
(PID.TID 0000.0001)  Levels:    will be set later
(PID.TID 0000.0001)  Fields:    SIareaN  SIheffN  SIhsnowN SIqSnow  SImeltPd SItIces  SIiceAge SI_dArea SI_dHeff SI_dHsnw
(PID.TID 0000.0001)  Fields:    SI_dQSnw
(PID.TID 0000.0001) Creating Output Stream: iceEnerg
(PID.TID 0000.0001) Output Frequency:      -3600.000000 ; Phase:           0.000000
(PID.TID 0000.0001)  Averaging Freq.:          0.000000 , Phase:           0.000000 , Cycle:   1
(PID.TID 0000.0001)  missing value: -9.990000000000E+02
(PID.TID 0000.0001)  Levels:    will be set later
(PID.TID 0000.0001)  Fields:    SIqIce   SI_dQIce
(PID.TID 0000.0001) -----------------------------------------------------
(PID.TID 0000.0001)  DIAGNOSTICS_READPARMS: statistics diags. summary:
(PID.TID 0000.0001) Creating Stats. Output Stream: iceStDiag
(PID.TID 0000.0001) Output Frequency:       3600.000000 ; Phase:           0.000000
(PID.TID 0000.0001)  Regions:   0
(PID.TID 0000.0001)  Fields:    SIarea   SIheff   SIhsnow  sIceLoad SIuice   SIvice   SItaux   SItauy   SIareaN  SIheffN
(PID.TID 0000.0001)  Fields:    SIhsnowN SIqSnow  SIqIce   SImeltPd SItIces  SIiceAge SI_dArea SI_dHeff SI_dHsnw SI_dQSnw
(PID.TID 0000.0001)  Fields:    SI_dQIce
(PID.TID 0000.0001) -----------------------------------------------------
(PID.TID 0000.0001) 
(PID.TID 0000.0001) SET_PARMS: done
(PID.TID 0000.0001) Enter INI_VERTICAL_GRID: setInterFDr=    T ; setCenterDr=    F
(PID.TID 0000.0001) tile:   1 ; Read from file grid_cs32.face001.bin
(PID.TID 0000.0001)   => xC yC dxF dyF rA xG yG dxV dyU rAz dxC dyC rAw rAs dxG dyG AngleCS AngleSN
(PID.TID 0000.0001) %MON XC_max                       =   1.7854351589505E+02
(PID.TID 0000.0001) %MON XC_min                       =  -1.7854351589505E+02
(PID.TID 0000.0001) %MON XC_mean                      =  -4.6999441375798E-15
(PID.TID 0000.0001) %MON XC_sd                        =   1.0355545336287E+02
(PID.TID 0000.0001) %MON XG_max                       =   1.8000000000000E+02
(PID.TID 0000.0001) %MON XG_min                       =  -1.7708797161002E+02
(PID.TID 0000.0001) %MON XG_mean                      =   1.8603515625000E+00
(PID.TID 0000.0001) %MON XG_sd                        =   1.0357130300504E+02
(PID.TID 0000.0001) %MON DXC_max                      =   3.2375185836900E+05
(PID.TID 0000.0001) %MON DXC_min                      =   1.1142031410131E+05
(PID.TID 0000.0001) %MON DXC_mean                     =   2.8605689051214E+05
(PID.TID 0000.0001) %MON DXC_sd                       =   3.4042087138252E+04
(PID.TID 0000.0001) %MON DXF_max                      =   3.2369947500827E+05
(PID.TID 0000.0001) %MON DXF_min                      =   1.2020820513318E+05
(PID.TID 0000.0001) %MON DXF_mean                     =   2.8605437324820E+05
(PID.TID 0000.0001) %MON DXF_sd                       =   3.4050524252539E+04
(PID.TID 0000.0001) %MON DXG_max                      =   3.2375195872773E+05
(PID.TID 0000.0001) %MON DXG_min                      =   1.0098378008791E+05
(PID.TID 0000.0001) %MON DXG_mean                     =   2.8603818508931E+05
(PID.TID 0000.0001) %MON DXG_sd                       =   3.4140406908005E+04
(PID.TID 0000.0001) %MON DXV_max                      =   3.2380418162750E+05
(PID.TID 0000.0001) %MON DXV_min                      =   8.0152299824136E+04
(PID.TID 0000.0001) %MON DXV_mean                     =   2.8603970633619E+05
(PID.TID 0000.0001) %MON DXV_sd                       =   3.4145142117723E+04
(PID.TID 0000.0001) %MON YC_max                       =   8.7940663871962E+01
(PID.TID 0000.0001) %MON YC_min                       =  -8.7940663871962E+01
(PID.TID 0000.0001) %MON YC_mean                      =   0.0000000000000E+00
(PID.TID 0000.0001) %MON YC_sd                        =   3.8676242969072E+01
(PID.TID 0000.0001) %MON YG_max                       =   9.0000000000000E+01
(PID.TID 0000.0001) %MON YG_min                       =  -9.0000000000000E+01
(PID.TID 0000.0001) %MON YG_mean                      =  -1.1842378929335E-15
(PID.TID 0000.0001) %MON YG_sd                        =   3.8676895860710E+01
(PID.TID 0000.0001) %MON DYC_max                      =   3.2375185836900E+05
(PID.TID 0000.0001) %MON DYC_min                      =   1.1142031410131E+05
(PID.TID 0000.0001) %MON DYC_mean                     =   2.8605689051214E+05
(PID.TID 0000.0001) %MON DYC_sd                       =   3.4042087138252E+04
(PID.TID 0000.0001) %MON DYF_max                      =   3.2369947500827E+05
(PID.TID 0000.0001) %MON DYF_min                      =   1.2020820513318E+05
(PID.TID 0000.0001) %MON DYF_mean                     =   2.8605437324820E+05
(PID.TID 0000.0001) %MON DYF_sd                       =   3.4050524252539E+04
(PID.TID 0000.0001) %MON DYG_max                      =   3.2375195872773E+05
(PID.TID 0000.0001) %MON DYG_min                      =   1.0098378008791E+05
(PID.TID 0000.0001) %MON DYG_mean                     =   2.8603818508931E+05
(PID.TID 0000.0001) %MON DYG_sd                       =   3.4140406908005E+04
(PID.TID 0000.0001) %MON DYU_max                      =   3.2380418162750E+05
(PID.TID 0000.0001) %MON DYU_min                      =   8.0152299824136E+04
(PID.TID 0000.0001) %MON DYU_mean                     =   2.8603970633619E+05
(PID.TID 0000.0001) %MON DYU_sd                       =   3.4145142117723E+04
(PID.TID 0000.0001) %MON RA_max                       =   1.0479260248419E+11
(PID.TID 0000.0001) %MON RA_min                       =   1.4019007022556E+10
(PID.TID 0000.0001) %MON RA_mean                      =   8.2992246709265E+10
(PID.TID 0000.0001) %MON RA_sd                        =   1.7509089299457E+10
(PID.TID 0000.0001) %MON RAW_max                      =   1.0480965274559E+11
(PID.TID 0000.0001) %MON RAW_min                      =   1.2166903467143E+10
(PID.TID 0000.0001) %MON RAW_mean                     =   8.2992246709235E+10
(PID.TID 0000.0001) %MON RAW_sd                       =   1.7481917919656E+10
(PID.TID 0000.0001) %MON RAS_max                      =   1.0480965274559E+11
(PID.TID 0000.0001) %MON RAS_min                      =   1.2166903467143E+10
(PID.TID 0000.0001) %MON RAS_mean                     =   8.2992246709235E+10
(PID.TID 0000.0001) %MON RAS_sd                       =   1.7481917919656E+10
(PID.TID 0000.0001) %MON RAZ_max                      =   1.0484349334619E+11
(PID.TID 0000.0001) %MON RAZ_min                      =   8.8317900612505E+09
(PID.TID 0000.0001) %MON RAZ_mean                     =   8.2992246709235E+10
(PID.TID 0000.0001) %MON RAZ_sd                       =   1.7482297311044E+10
(PID.TID 0000.0001) %MON AngleCS_max                  =   9.9999994756719E-01
(PID.TID 0000.0001) %MON AngleCS_min                  =  -9.9968286884824E-01
(PID.TID 0000.0001) %MON AngleCS_mean                 =   3.3078922539000E-01
(PID.TID 0000.0001) %MON AngleCS_sd                   =   6.2496278958502E-01
(PID.TID 0000.0001) %MON AngleSN_max                  =   9.9968286884824E-01
(PID.TID 0000.0001) %MON AngleSN_min                  =  -9.9999994756719E-01
(PID.TID 0000.0001) %MON AngleSN_mean                 =  -3.3078922539000E-01
(PID.TID 0000.0001) %MON AngleSN_sd                   =   6.2496278958502E-01
(PID.TID 0000.0001)  MDS_READ_FIELD: opening global file: bathy_Hmin50.bin
(PID.TID 0000.0001) // =======================================================
(PID.TID 0000.0001) // Field Model R_low (ini_masks_etc)
(PID.TID 0000.0001) // CMIN =         -5.200000000000000E+03
(PID.TID 0000.0001) // CMAX =         -5.000000000000000E+01
(PID.TID 0000.0001) // CINT =          1.907407407407407E+02
(PID.TID 0000.0001) // SYMBOLS (CMIN->CMAX): -abcdefghijklmnopqrstuvwxyz+
(PID.TID 0000.0001) //                  0.0: .
(PID.TID 0000.0001) // RANGE I (Lo:Hi:Step):(    -3:    36:     1)
(PID.TID 0000.0001) // RANGE J (Lo:Hi:Step):(    36:    -3:    -1)
(PID.TID 0000.0001) // RANGE K (Lo:Hi:Step):(   1:   1:   1)
(PID.TID 0000.0001) // =======================================================
(PID.TID 0000.0001) K =   1
(PID.TID 0000.0001) //                I=6       I=16      I=26      I=36
(PID.TID 0000.0001) // |--J--|321012345|789012345|789012345|789012345|
(PID.TID 0000.0001) //     36 cbbc-ddcbcdehkhhmn..++..................
(PID.TID 0000.0001) //     35 dcac--cbbeefjkfefw+..........zpu........
(PID.TID 0000.0001) //     34 d--ba-abcehjnldcclz+........spps........
(PID.TID 0000.0001) //     33 --abbbccceiomkfdbbc+.......+s...........
(PID.TID 0000.0001) //     32 --bddefhhkqqlgfaakqz..v.+..+............
(PID.TID 0000.0001) //     31 abbcffijnpnqneaaat..umrr+s.z............
(PID.TID 0000.0001) //     30 --adgillkkkifcadcx.ymmqzqikvnnps........
(PID.TID 0000.0001) //     29 --cfiljigfjd--efdozy...+ximpnnuz........
(PID.TID 0000.0001) //     28 -abgkhfcccea-bdei........t..............
(PID.TID 0000.0001) //     27 -acghfbaaaa-achmy......................+
(PID.TID 0000.0001) //     26 -adhfca-----bfiv.......................+
(PID.TID 0000.0001) //     25 -achfa------ch+..................w......
(PID.TID 0000.0001) //     24 aaeifa--acbcei...................w......
(PID.TID 0000.0001) //     23 abfida-aabchjk...................zz.....
(PID.TID 0000.0001) //     22 -afhfaa---bfgi....................zz..rn
(PID.TID 0000.0001) //     21 babcgca----abe.....................ysstl
(PID.TID 0000.0001) //     20 fbbbcgfcaa-aae+.......................lc
(PID.TID 0000.0001) //     19 zmfeccdghfeegcbt......................aa
(PID.TID 0000.0001) //     18 ..wifedfkhfegbbcivlqfoz..............jaa
(PID.TID 0000.0001) //     17 ..+wfeefikhgcbbccaaacgn.............icaa
(PID.TID 0000.0001) //     16 ....wiheddeccdfhfbabdfl............jdbad
(PID.TID 0000.0001) //     15 ......ylea--acfihebcbbes..........sfcbbn
(PID.TID 0000.0001) //     14 ........c---acgkhdcc--di..........ofddch
(PID.TID 0000.0001) //     13 .......+b----cfkhec---afz.........nhfdff
(PID.TID 0000.0001) //     12 .......ec----chjhec---ag..........skiqdd
(PID.TID 0000.0001) //     11 ......pdca--achlheba--ai..........nkn.fd
(PID.TID 0000.0001) //     10 ......wfdb--achlhea---an.........uos..dc
(PID.TID 0000.0001) //      9 ......vgec---bfikca--cjl+.......+nnv.+cc
(PID.TID 0000.0001) //      8 .....zleca---afjfca--hdfz.......vkky.jce
(PID.TID 0000.0001) //      7 ...+zohec--abcfkhecbchbdx.......qiht.faa
(PID.TID 0000.0001) //      6 ..+yomfddcaabefkifdchaadt......uqdeisc--
(PID.TID 0000.0001) //      5 ..+nhgffkghccfhkhffgdaackz....uoibcimlaa
(PID.TID 0000.0001) //      4 .+ujhgfllfhdffhkfffca-aady...llnabdopfcb
(PID.TID 0000.0001) //      3 +vjggfcceeffffjlkjgaa---bfvheeln-aesphfd
(PID.TID 0000.0001) //      2 qifeecbbccddefilihecbaacbaajfega-aesqhff
(PID.TID 0000.0001) //      1 ebbbbaaaaaccdfhlhfefdcccaabjefbaaafonhgl
(PID.TID 0000.0001) //      0 -aaaaaaa-aacccfikkhecccbbbaaabaadfkllilm
(PID.TID 0000.0001) //     -1 --aaaaa----aacffiljgfffcca--adfikkiikimi
(PID.TID 0000.0001) //     -2 --aaa-------acdefinmlgiieb-chnnnmlmlfklk
(PID.TID 0000.0001) //     -3 a--a---aa---aedeegknmlgiigcdfhpokkimdkmk
(PID.TID 0000.0001) // =======================================================
(PID.TID 0000.0001) // END OF FIELD                                          =
(PID.TID 0000.0001) // =======================================================
(PID.TID 0000.0001) 
(PID.TID 0000.0001) // =======================================================
(PID.TID 0000.0001) // Field Model Ro_surf (ini_masks_etc)
(PID.TID 0000.0001) // CMIN =          1.000000000000000E+32
(PID.TID 0000.0001) // CMAX =         -1.000000000000000E+32
(PID.TID 0000.0001) // CINT =          0.000000000000000E+00
(PID.TID 0000.0001) // SYMBOLS (CMIN->CMAX): -abcdefghijklmnopqrstuvwxyz+
(PID.TID 0000.0001) //                  0.0: .
(PID.TID 0000.0001) // RANGE I (Lo:Hi:Step):(    -3:    36:     1)
(PID.TID 0000.0001) // RANGE J (Lo:Hi:Step):(    36:    -3:    -1)
(PID.TID 0000.0001) // RANGE K (Lo:Hi:Step):(   1:   1:   1)
(PID.TID 0000.0001) // =======================================================
(PID.TID 0000.0001) // =======================================================
(PID.TID 0000.0001) // END OF FIELD                                          =
(PID.TID 0000.0001) // =======================================================
(PID.TID 0000.0001) 
(PID.TID 0000.0001) // =======================================================
(PID.TID 0000.0001) // Field hFacC at iteration          0
(PID.TID 0000.0001) // CMIN =          1.000000000000000E+00
(PID.TID 0000.0001) // CMAX =          1.000000000000000E+00
(PID.TID 0000.0001) // CINT =          0.000000000000000E+00
(PID.TID 0000.0001) // SYMBOLS (CMIN->CMAX): -abcdefghijklmnopqrstuvwxyz+
(PID.TID 0000.0001) //                  0.0: .
(PID.TID 0000.0001) // RANGE I (Lo:Hi:Step):(    -3:    36:     1)
(PID.TID 0000.0001) // RANGE J (Lo:Hi:Step):(    36:    -3:    -1)
(PID.TID 0000.0001) // RANGE K (Lo:Hi:Step):(   1:   1:   1)
(PID.TID 0000.0001) // =======================================================
(PID.TID 0000.0001) // =======================================================
(PID.TID 0000.0001) // END OF FIELD                                          =
(PID.TID 0000.0001) // =======================================================
(PID.TID 0000.0001) 
(PID.TID 0000.0001) // =======================================================
(PID.TID 0000.0001) // Field hFacW at iteration          0
(PID.TID 0000.0001) // CMIN =          1.000000000000000E+00
(PID.TID 0000.0001) // CMAX =          1.000000000000000E+00
(PID.TID 0000.0001) // CINT =          0.000000000000000E+00
(PID.TID 0000.0001) // SYMBOLS (CMIN->CMAX): -abcdefghijklmnopqrstuvwxyz+
(PID.TID 0000.0001) //                  0.0: .
(PID.TID 0000.0001) // RANGE I (Lo:Hi:Step):(    -3:    36:     1)
(PID.TID 0000.0001) // RANGE J (Lo:Hi:Step):(    36:    -3:    -1)
(PID.TID 0000.0001) // RANGE K (Lo:Hi:Step):(   1:   1:   1)
(PID.TID 0000.0001) // =======================================================
(PID.TID 0000.0001) // =======================================================
(PID.TID 0000.0001) // END OF FIELD                                          =
(PID.TID 0000.0001) // =======================================================
(PID.TID 0000.0001) 
(PID.TID 0000.0001) // =======================================================
(PID.TID 0000.0001) // Field hFacS at iteration          0
(PID.TID 0000.0001) // CMIN =          1.000000000000000E+00
(PID.TID 0000.0001) // CMAX =          1.000000000000000E+00
(PID.TID 0000.0001) // CINT =          0.000000000000000E+00
(PID.TID 0000.0001) // SYMBOLS (CMIN->CMAX): -abcdefghijklmnopqrstuvwxyz+
(PID.TID 0000.0001) //                  0.0: .
(PID.TID 0000.0001) // RANGE I (Lo:Hi:Step):(    -3:    36:     1)
(PID.TID 0000.0001) // RANGE J (Lo:Hi:Step):(    36:    -3:    -1)
(PID.TID 0000.0001) // RANGE K (Lo:Hi:Step):(   1:   1:   1)
(PID.TID 0000.0001) // =======================================================
(PID.TID 0000.0001) // =======================================================
(PID.TID 0000.0001) // END OF FIELD                                          =
(PID.TID 0000.0001) // =======================================================
(PID.TID 0000.0001) 
(PID.TID 0000.0001) GAD_INIT_FIXED: GAD_OlMinSize=  1  0  1
(PID.TID 0000.0001) 
(PID.TID 0000.0001) // ===================================
(PID.TID 0000.0001) // GAD parameters :
(PID.TID 0000.0001) // ===================================
(PID.TID 0000.0001) tempAdvScheme =   /* Temp. Horiz.Advection scheme selector */
(PID.TID 0000.0001)                       2
(PID.TID 0000.0001)     ;
(PID.TID 0000.0001) tempVertAdvScheme =   /* Temp. Vert. Advection scheme selector */
(PID.TID 0000.0001)                       2
(PID.TID 0000.0001)     ;
(PID.TID 0000.0001) tempMultiDimAdvec =   /* use Muti-Dim Advec method for Temp */
(PID.TID 0000.0001)                   F
(PID.TID 0000.0001)     ;
(PID.TID 0000.0001) tempSOM_Advection = /* use 2nd Order Moment Advection for Temp */
(PID.TID 0000.0001)                   F
(PID.TID 0000.0001)     ;
(PID.TID 0000.0001) AdamsBashforthGt = /* apply Adams-Bashforth extrapolation on Gt */
(PID.TID 0000.0001)                   T
(PID.TID 0000.0001)     ;
(PID.TID 0000.0001) AdamsBashforth_T = /* apply Adams-Bashforth extrapolation on Temp */
(PID.TID 0000.0001)                   F
(PID.TID 0000.0001)     ;
(PID.TID 0000.0001) saltAdvScheme =   /* Salt. Horiz.advection scheme selector */
(PID.TID 0000.0001)                       2
(PID.TID 0000.0001)     ;
(PID.TID 0000.0001) saltVertAdvScheme =   /* Salt. Vert. Advection scheme selector */
(PID.TID 0000.0001)                       2
(PID.TID 0000.0001)     ;
(PID.TID 0000.0001) saltMultiDimAdvec =   /* use Muti-Dim Advec method for Salt */
(PID.TID 0000.0001)                   F
(PID.TID 0000.0001)     ;
(PID.TID 0000.0001) saltSOM_Advection = /* use 2nd Order Moment Advection for Salt */
(PID.TID 0000.0001)                   F
(PID.TID 0000.0001)     ;
(PID.TID 0000.0001) AdamsBashforthGs = /* apply Adams-Bashforth extrapolation on Gs */
(PID.TID 0000.0001)                   T
(PID.TID 0000.0001)     ;
(PID.TID 0000.0001) AdamsBashforth_S = /* apply Adams-Bashforth extrapolation on Salt */
(PID.TID 0000.0001)                   F
(PID.TID 0000.0001)     ;
(PID.TID 0000.0001) // ===================================
(PID.TID 0000.0001)  SEAICE_INIT_FIXED:  5 sea ice thickness categories
(PID.TID 0000.0001)  SEAICE_INIT_FIXED: Hlimit =   0.00  0.64  1.39  2.47  4.57 999.9
(PID.TID 0000.0001) // =======================================================
(PID.TID 0000.0001) // Seaice configuration (SEAICE_PARM01) >>> START <<<
(PID.TID 0000.0001) // =======================================================
(PID.TID 0000.0001) 
(PID.TID 0000.0001)    Seaice time stepping configuration   > START <
(PID.TID 0000.0001)    ----------------------------------------------
(PID.TID 0000.0001) SEAICE_deltaTtherm= /* thermodynamic timestep */
(PID.TID 0000.0001)                 9.000000000000000E+02
(PID.TID 0000.0001)     ;
(PID.TID 0000.0001) SEAICE_deltaTdyn  = /* dynamic timestep */
(PID.TID 0000.0001)                 9.000000000000000E+02
(PID.TID 0000.0001)     ;
(PID.TID 0000.0001) SEAICE_deltaTevp  = /* EVP timestep */
(PID.TID 0000.0001)                 1.234567000000000E+05
(PID.TID 0000.0001)     ;
(PID.TID 0000.0001) SEAICEuseBDF2  = /* use backw. differencing for mom. eq. */
(PID.TID 0000.0001)                   F
(PID.TID 0000.0001)     ;
(PID.TID 0000.0001) SEAICEupdateOceanStress= /* update Ocean surf. stress */
(PID.TID 0000.0001)                   F
(PID.TID 0000.0001)     ;
(PID.TID 0000.0001) SEAICErestoreUnderIce  = /* restore T and S under ice */
(PID.TID 0000.0001)                   F
(PID.TID 0000.0001)     ;
(PID.TID 0000.0001) 
(PID.TID 0000.0001)    Seaice dynamics configuration   > START <
(PID.TID 0000.0001)    ------------------------------------------
(PID.TID 0000.0001) SEAICEuseDYNAMICS = /* use dynamics */
(PID.TID 0000.0001)                   T
(PID.TID 0000.0001)     ;
(PID.TID 0000.0001) model grid type   = /* type of sea ice model grid */
(PID.TID 0000.0001)               'C-GRID'
(PID.TID 0000.0001)     ;
(PID.TID 0000.0001) SEAICEuseStrImpCpl = /* use strongly implicit coupling */
(PID.TID 0000.0001)                   F
(PID.TID 0000.0001)     ;
(PID.TID 0000.0001) SEAICEusePicardAsPrecon = /* Picard as preconditioner */
(PID.TID 0000.0001)                   F
(PID.TID 0000.0001)     ;
(PID.TID 0000.0001) SEAICEuseLSR      = /* use default Picard-LSR solver */
(PID.TID 0000.0001)                   T
(PID.TID 0000.0001)     ;
(PID.TID 0000.0001) SEAICEuseKrylov   = /* use Picard-Krylov solver */
(PID.TID 0000.0001)                   F
(PID.TID 0000.0001)     ;
(PID.TID 0000.0001) SEAICEuseEVP      = /* use EVP solver rather than LSR */
(PID.TID 0000.0001)                   F
(PID.TID 0000.0001)     ;
(PID.TID 0000.0001) SEAICEuseJFNK     = /* use JFNK solver */
(PID.TID 0000.0001)                   F
(PID.TID 0000.0001)     ;
(PID.TID 0000.0001) OCEAN_drag        = /* air-ocean drag coefficient */
(PID.TID 0000.0001)                 8.154100000000000E-04
(PID.TID 0000.0001)     ;
(PID.TID 0000.0001) SEAICE_drag       = /* air-ice drag coefficient */
(PID.TID 0000.0001)                 2.000000000000000E-03
(PID.TID 0000.0001)     ;
(PID.TID 0000.0001) SEAICE_drag_south      = /* Southern Ocean SEAICE_drag */
(PID.TID 0000.0001)                 2.000000000000000E-03
(PID.TID 0000.0001)     ;
(PID.TID 0000.0001) SEAICE_waterDrag  = /* water-ice drag */
(PID.TID 0000.0001)                 5.169855072463768E-03
(PID.TID 0000.0001)     ;
(PID.TID 0000.0001) SEAICE_waterDrag_south = /* Southern Ocean waterDrag */
(PID.TID 0000.0001)                 5.169855072463768E-03
(PID.TID 0000.0001)     ;
(PID.TID 0000.0001) SEAICEuseTilt     = /* include surface tilt in dyna. */
(PID.TID 0000.0001)                   T
(PID.TID 0000.0001)     ;
(PID.TID 0000.0001) SEAICEuseTEM      = /* use truncated ellipse rheology */
(PID.TID 0000.0001)                   F
(PID.TID 0000.0001)     ;
(PID.TID 0000.0001) SEAICE_strength   = /* sea-ice strength Pstar */
(PID.TID 0000.0001)                 2.678000000000000E+04
(PID.TID 0000.0001)     ;
(PID.TID 0000.0001) SEAICE_cStar      = /* sea-ice strength parameter cStar */
(PID.TID 0000.0001)                 2.000000000000000E+01
(PID.TID 0000.0001)     ;
(PID.TID 0000.0001) SEAICEpressReplFac= /* press. replacement method factor */
(PID.TID 0000.0001)                 1.000000000000000E+00
(PID.TID 0000.0001)     ;
(PID.TID 0000.0001) SEAICE_tensilFac  = /* sea-ice tensile strength factor */
(PID.TID 0000.0001)                 0.000000000000000E+00
(PID.TID 0000.0001)     ;
(PID.TID 0000.0001) SEAICE_tensilDepth= /* crit. depth for tensile strength */
(PID.TID 0000.0001)                 0.000000000000000E+00
(PID.TID 0000.0001)     ;
(PID.TID 0000.0001) SEAICEpresH0   = /* sea-ice strength Heff threshold */
(PID.TID 0000.0001)                 1.000000000000000E+00
(PID.TID 0000.0001)     ;
(PID.TID 0000.0001) SEAICEpresPow0 = /* exponent for Heff<SEAICEpresH0 */
(PID.TID 0000.0001)                       1
(PID.TID 0000.0001)     ;
(PID.TID 0000.0001) SEAICEpresPow1 = /* exponent for Heff>SEAICEpresH0 */
(PID.TID 0000.0001)                       1
(PID.TID 0000.0001)     ;
(PID.TID 0000.0001) SEAICEetaZmethod = /* method computing eta at Z-point */
(PID.TID 0000.0001)                       0
(PID.TID 0000.0001)     ;
(PID.TID 0000.0001) SEAICE_zetaMin    = /* lower bound for viscosity */
(PID.TID 0000.0001)                 0.000000000000000E+00
(PID.TID 0000.0001)     ;
(PID.TID 0000.0001) SEAICE_eccen    = /* elliptical yield curve eccent */
(PID.TID 0000.0001)                 2.000000000000000E+00
(PID.TID 0000.0001)     ;
(PID.TID 0000.0001) SEAICEstressFactor    = /* wind stress scaling factor */
(PID.TID 0000.0001)                 1.000000000000000E+00
(PID.TID 0000.0001)     ;
(PID.TID 0000.0001) SEAICE_airTurnAngle    = /* air-ice turning angle */
(PID.TID 0000.0001)                 0.000000000000000E+00
(PID.TID 0000.0001)     ;
(PID.TID 0000.0001) SEAICE_waterTurnAngle  = /* ice-water turning angle */
(PID.TID 0000.0001)                 0.000000000000000E+00
(PID.TID 0000.0001)     ;
(PID.TID 0000.0001) SEAICEuseMetricTerms = /* use metric terms */
(PID.TID 0000.0001)                   T
(PID.TID 0000.0001)     ;
(PID.TID 0000.0001) SEAICE_no_slip    = /* no slip boundary conditions */
(PID.TID 0000.0001)                   F
(PID.TID 0000.0001)     ;
(PID.TID 0000.0001) SEAICE_2ndOrderBC = /* 2nd order no slip boundary conditions */
(PID.TID 0000.0001)                   F
(PID.TID 0000.0001)     ;
(PID.TID 0000.0001) SEAICE_clipVeloctities = /* impose max. vels. */
(PID.TID 0000.0001)                   F
(PID.TID 0000.0001)     ;
(PID.TID 0000.0001) useHB87stressCoupling  = /* altern. ice-ocean stress */
(PID.TID 0000.0001)                   F
(PID.TID 0000.0001)     ;
(PID.TID 0000.0001) SEAICEscaleSurfStress  = /* scale atm. and ocean-surface stress with AREA */
(PID.TID 0000.0001)                   F
(PID.TID 0000.0001)     ;
(PID.TID 0000.0001) SEAICE_maskRHS    = /* mask RHS of solver */
(PID.TID 0000.0001)                   F
(PID.TID 0000.0001)     ;
(PID.TID 0000.0001) SEAICEaddSnowMass = /* add snow mass to seaiceMassC/U/V */
(PID.TID 0000.0001)                   F
(PID.TID 0000.0001)     ;
(PID.TID 0000.0001) LSR_mixIniGuess = /* mix free-drift sol. into LSR initial Guess */
(PID.TID 0000.0001)                      -1
(PID.TID 0000.0001)     ;
(PID.TID 0000.0001) SEAICE_LSRrelaxU  = /* LSR solver: relaxation parameter */
(PID.TID 0000.0001)                 9.500000000000000E-01
(PID.TID 0000.0001)     ;
(PID.TID 0000.0001) SEAICE_LSRrelaxV  = /* LSR solver: relaxation parameter */
(PID.TID 0000.0001)                 9.500000000000000E-01
(PID.TID 0000.0001)     ;
(PID.TID 0000.0001) LSR_ERROR         = /* sets accuracy of LSR solver */
(PID.TID 0000.0001)                 1.000000000000000E-04
(PID.TID 0000.0001)     ;
(PID.TID 0000.0001) SOLV_NCHECK       = /* test interval for LSR solver */
(PID.TID 0000.0001)                       2
(PID.TID 0000.0001)     ;
(PID.TID 0000.0001) SEAICEuseMultiTileSolver = /* use full domain tri-diag solver */
(PID.TID 0000.0001)                   F
(PID.TID 0000.0001)     ;
(PID.TID 0000.0001) SEAICE_OLx = /* overlap for LSR/preconditioner */
(PID.TID 0000.0001)                       0
(PID.TID 0000.0001)     ;
(PID.TID 0000.0001) SEAICE_OLy = /* overlap for LSR/preconditioner */
(PID.TID 0000.0001)                       0
(PID.TID 0000.0001)     ;
(PID.TID 0000.0001) SEAICEnonLinIterMax = /* max. number of nonlinear solver steps */
(PID.TID 0000.0001)                       2
(PID.TID 0000.0001)     ;
(PID.TID 0000.0001) SEAICElinearIterMax = /* max. number of linear solver steps */
(PID.TID 0000.0001)                     500
(PID.TID 0000.0001)     ;
(PID.TID 0000.0001) SEAICEnonLinTol     = /* non-linear solver tolerance */
(PID.TID 0000.0001)                 0.000000000000000E+00
(PID.TID 0000.0001)     ;
(PID.TID 0000.0001) 
(PID.TID 0000.0001)    Seaice advection diffusion config,   > START <
(PID.TID 0000.0001)    -----------------------------------------------
(PID.TID 0000.0001) SEAICEmomAdvection = /* advect sea ice momentum */
(PID.TID 0000.0001)                   F
(PID.TID 0000.0001)     ;
(PID.TID 0000.0001) SEAICEadvHeff = /* advect effective ice thickness */
(PID.TID 0000.0001)                   T
(PID.TID 0000.0001)     ;
(PID.TID 0000.0001) SEAICEadvArea = /* advect fractional ice area */
(PID.TID 0000.0001)                   T
(PID.TID 0000.0001)     ;
(PID.TID 0000.0001) SEAICEadvSnow = /* advect snow layer together with ice */
(PID.TID 0000.0001)                   T
(PID.TID 0000.0001)     ;
(PID.TID 0000.0001) SEAICEadvScheme   = /* advection scheme for ice */
(PID.TID 0000.0001)                      77
(PID.TID 0000.0001)     ;
(PID.TID 0000.0001) SEAICEadvSchArea   = /* advection scheme for area */
(PID.TID 0000.0001)                      77
(PID.TID 0000.0001)     ;
(PID.TID 0000.0001) SEAICEadvSchHeff   = /* advection scheme for thickness */
(PID.TID 0000.0001)                      77
(PID.TID 0000.0001)     ;
(PID.TID 0000.0001) SEAICEadvSchSnow   = /* advection scheme for snow */
(PID.TID 0000.0001)                      77
(PID.TID 0000.0001)     ;
(PID.TID 0000.0001) SEAICEdiffKhArea   = /* diffusivity (m^2/s) for area */
(PID.TID 0000.0001)                 0.000000000000000E+00
(PID.TID 0000.0001)     ;
(PID.TID 0000.0001) SEAICEdiffKhHeff   = /* diffusivity (m^2/s) for heff */
(PID.TID 0000.0001)                 0.000000000000000E+00
(PID.TID 0000.0001)     ;
(PID.TID 0000.0001) SEAICEdiffKhSnow   = /* diffusivity (m^2/s) for snow */
(PID.TID 0000.0001)                 0.000000000000000E+00
(PID.TID 0000.0001)     ;
(PID.TID 0000.0001) DIFF1             = /* parameter used in advect.F [m/s] */
(PID.TID 0000.0001)                 0.000000000000000E+00
(PID.TID 0000.0001)     ;
(PID.TID 0000.0001) 
(PID.TID 0000.0001)    Seaice thermodynamics configuration   > START <
(PID.TID 0000.0001)    -----------------------------------------------
(PID.TID 0000.0001) SEAICE_rhoIce     = /* density of sea ice (kg/m3) */
(PID.TID 0000.0001)                 9.100000000000000E+02
(PID.TID 0000.0001)     ;
(PID.TID 0000.0001) SEAICE_rhoSnow    = /* density of snow (kg/m3) */
(PID.TID 0000.0001)                 3.300000000000000E+02
(PID.TID 0000.0001)     ;
(PID.TID 0000.0001) SEAICE_rhoAir     = /* density of air (kg/m3) */
(PID.TID 0000.0001)                 1.300000000000000E+00
(PID.TID 0000.0001)     ;
(PID.TID 0000.0001) usePW79thermodynamics  = /* default 0-layer TD */
(PID.TID 0000.0001)                   F
(PID.TID 0000.0001)     ;
(PID.TID 0000.0001)    pkg/seaice thermodynamics is OFF
(PID.TID 0000.0001) 
(PID.TID 0000.0001)    Seaice initialization and IO config.,   > START <
(PID.TID 0000.0001)    -------------------------------------------------
(PID.TID 0000.0001) SEAICE_initialHEFF= /* initial sea-ice thickness */
(PID.TID 0000.0001)                 0.000000000000000E+00
(PID.TID 0000.0001)     ;
(PID.TID 0000.0001) AreaFile = /* Initial ice concentration File */
(PID.TID 0000.0001)               ''
(PID.TID 0000.0001)     ;
(PID.TID 0000.0001) HeffFile = /* Initial effective ice thickness File */
(PID.TID 0000.0001)               ''
(PID.TID 0000.0001)     ;
(PID.TID 0000.0001) HsnowFile = /* Initial snow thickness File */
(PID.TID 0000.0001)               ''
(PID.TID 0000.0001)     ;
(PID.TID 0000.0001) uIceFile = /* Initial U-ice velocity File */
(PID.TID 0000.0001)               ''
(PID.TID 0000.0001)     ;
(PID.TID 0000.0001) vIceFile = /* Initial V-ice velocity File */
(PID.TID 0000.0001)               ''
(PID.TID 0000.0001)     ;
(PID.TID 0000.0001) SEAICEwriteState  = /* write sea ice state to file */
(PID.TID 0000.0001)                   T
(PID.TID 0000.0001)     ;
(PID.TID 0000.0001) SEAICE_monFreq  = /* monitor frequency */
(PID.TID 0000.0001)                 1.000000000000000E+00
(PID.TID 0000.0001)     ;
(PID.TID 0000.0001) SEAICE_dumpFreq   = /* dump frequency */
(PID.TID 0000.0001)                 0.000000000000000E+00
(PID.TID 0000.0001)     ;
(PID.TID 0000.0001) SEAICE_taveFreq   = /* time-averaging frequency */
(PID.TID 0000.0001)                 0.000000000000000E+00
(PID.TID 0000.0001)     ;
(PID.TID 0000.0001) SEAICE_mon_stdio  = /* write monitor to std-outp */
(PID.TID 0000.0001)                   T
(PID.TID 0000.0001)     ;
(PID.TID 0000.0001) SEAICE_dump_mdsio = /* write snap-shot   using MDSIO */
(PID.TID 0000.0001)                   T
(PID.TID 0000.0001)     ;
(PID.TID 0000.0001) SEAICE_tave_mdsio = /* write TimeAverage using MDSIO */
(PID.TID 0000.0001)                   T
(PID.TID 0000.0001)     ;
(PID.TID 0000.0001) 
(PID.TID 0000.0001)    Seaice regularization numbers,   > START <
(PID.TID 0000.0001)    -----------------------------------------------
(PID.TID 0000.0001) SEAICE_deltaMin   = /* reduce singularities in Delta */
(PID.TID 0000.0001)                 1.000000000000000E-10
(PID.TID 0000.0001)     ;
(PID.TID 0000.0001) SEAICE_EPS        = /* small number */
(PID.TID 0000.0001)                 1.000000000000000E-10
(PID.TID 0000.0001)     ;
(PID.TID 0000.0001) SEAICE_EPS_SQ     = /* small number squared */
(PID.TID 0000.0001)                 1.000000000000000E-20
(PID.TID 0000.0001)     ;
(PID.TID 0000.0001) SEAICE_area_reg   = /* reduce derivative singularities */
(PID.TID 0000.0001)                 1.000000000000000E-05
(PID.TID 0000.0001)     ;
(PID.TID 0000.0001) SEAICE_hice_reg   = /* reduce derivative singularities */
(PID.TID 0000.0001)                 5.000000000000000E-02
(PID.TID 0000.0001)     ;
(PID.TID 0000.0001) SEAICE_area_floor = /* reduce derivative singularities */
(PID.TID 0000.0001)                 1.000000000000000E-05
(PID.TID 0000.0001)     ;
(PID.TID 0000.0001) 
(PID.TID 0000.0001) // =======================================================
(PID.TID 0000.0001) // Seaice configuration (SEAICE_PARM01) >>> END <<<
(PID.TID 0000.0001) // =======================================================
(PID.TID 0000.0001) 
(PID.TID 0000.0001) ------------------------------------------------------------
(PID.TID 0000.0001) DIAGNOSTICS_SET_LEVELS: done
(PID.TID 0000.0001)  Total Nb of available Diagnostics: ndiagt=   297
(PID.TID 0000.0001)  write list of available Diagnostics to file: available_diagnostics.log
(PID.TID 0000.0001) SETDIAG: Allocate  1 x  1 Levels for Diagnostic #    86 oceQnet
(PID.TID 0000.0001) SETDIAG: Allocate  1 x  1 Levels for Diagnostic #    87 oceQsw
(PID.TID 0000.0001) SETDIAG: Allocate  1 x  1 Levels for Diagnostic #    84 oceFWflx
(PID.TID 0000.0001) SETDIAG: Allocate  1 x  1 Levels for Diagnostic #    85 oceSflux
(PID.TID 0000.0001) SETDIAG: Allocate  1 x  1 Levels for Diagnostic #    80 oceTAUX
(PID.TID 0000.0001) SETDIAG: Allocate  1 x  1 Levels for Diagnostic #    81 oceTAUY
(PID.TID 0000.0001) SETDIAG: Allocate 15 x  1 Levels for Diagnostic #    26 THETA
(PID.TID 0000.0001) SETDIAG: Allocate 15 x  1 Levels for Diagnostic #    27 SALT
(PID.TID 0000.0001) SETDIAG: Allocate 15 x  1 Levels for Diagnostic #    30 UVEL
(PID.TID 0000.0001) SETDIAG: Allocate 15 x  1 Levels for Diagnostic #    31 VVEL
(PID.TID 0000.0001) SETDIAG: Allocate  1 x  1 Levels for Diagnostic #   211 SIarea
(PID.TID 0000.0001) SETDIAG: Allocate  1 x  1 Levels for Diagnostic #   214 SIheff
(PID.TID 0000.0001) SETDIAG: Allocate  1 x  1 Levels for Diagnostic #   216 SIhsnow
(PID.TID 0000.0001) SETDIAG: Allocate  1 x  1 Levels for Diagnostic #    83 sIceLoad
(PID.TID 0000.0001) SETDIAG: Allocate  1 x  1 Levels for Diagnostic #   220 SIuice
(PID.TID 0000.0001) SETDIAG: Allocate  1 x  1 Levels for Diagnostic #   221 SIvice
(PID.TID 0000.0001) SETDIAG: Allocate  1 x  1 Levels for Diagnostic #   222 SItaux
(PID.TID 0000.0001) SETDIAG: Allocate  1 x  1 Levels for Diagnostic #   223 SItauy
(PID.TID 0000.0001) SETDIAG: Allocate  1 x  1 Levels for Diagnostic #   211 SIarea
(PID.TID 0000.0001) SETDIAG: Allocate  1 x  1 Levels for Diagnostic #   214 SIheff
(PID.TID 0000.0001) SETDIAG: Allocate  1 x  1 Levels for Diagnostic #   216 SIhsnow
(PID.TID 0000.0001) SETDIAG: Allocate  1 x  1 Levels for Diagnostic #    83 sIceLoad
(PID.TID 0000.0001) SETDIAG: Allocate  1 x  1 Levels for Diagnostic #   220 SIuice
(PID.TID 0000.0001) SETDIAG: Allocate  1 x  1 Levels for Diagnostic #   221 SIvice
(PID.TID 0000.0001) SETDIAG: Allocate  1 x  1 Levels for Diagnostic #   222 SItaux
(PID.TID 0000.0001) SETDIAG: Allocate  1 x  1 Levels for Diagnostic #   223 SItauy
(PID.TID 0000.0001) SETDIAG: Allocate  1 x  1 Levels for Diagnostic #   284 CPLoWGHT
(PID.TID 0000.0001) SETDIAG: Allocate  5 x  1 Levels for Diagnostic #   282 SIareaN
(PID.TID 0000.0001) SETDIAG: Allocate  5 x  1 Levels for Diagnostic #   281 SIheffN
(PID.TID 0000.0001) SETDIAG: Allocate  5 x  1 Levels for Diagnostic #   283 SIhsnowN
(PID.TID 0000.0001) SETDIAG: Allocate  5 x  1 Levels for Diagnostic #   287 SIqSnow
(PID.TID 0000.0001) SETDIAG: Allocate  5 x  1 Levels for Diagnostic #   288 SImeltPd
(PID.TID 0000.0001) SETDIAG: Allocate  5 x  1 Levels for Diagnostic #   285 SItIces
(PID.TID 0000.0001) SETDIAG: Allocate  5 x  1 Levels for Diagnostic #   289 SIiceAge
(PID.TID 0000.0001) SETDIAG: Allocate  5 x  1 Levels for Diagnostic #   290 SI_dArea
(PID.TID 0000.0001) SETDIAG: Allocate  5 x  1 Levels for Diagnostic #   291 SI_dHeff
(PID.TID 0000.0001) SETDIAG: Allocate  5 x  1 Levels for Diagnostic #   292 SI_dHsnw
(PID.TID 0000.0001) SETDIAG: Allocate  5 x  1 Levels for Diagnostic #   295 SI_dQSnw
(PID.TID 0000.0001) SETDIAG: Allocate 20 x  1 Levels for Diagnostic #   286 SIqIce
(PID.TID 0000.0001) SETDIAG: Allocate 20 x  1 Levels for Diagnostic #   294 SI_dQIce
(PID.TID 0000.0001)   space allocated for all diagnostics:     178 levels
(PID.TID 0000.0001)   set mate pointer for diag #    80  oceTAUX  , Parms: UU      U1 , mate:    81
(PID.TID 0000.0001)   set mate pointer for diag #    81  oceTAUY  , Parms: VV      U1 , mate:    80
(PID.TID 0000.0001)   set mate pointer for diag #    30  UVEL     , Parms: UUR     MR , mate:    31
(PID.TID 0000.0001)   set mate pointer for diag #    31  VVEL     , Parms: VVR     MR , mate:    30
(PID.TID 0000.0001)   set mate pointer for diag #   220  SIuice   , Parms: UU      M1 , mate:   221
(PID.TID 0000.0001)   set mate pointer for diag #   221  SIvice   , Parms: VV      M1 , mate:   220
(PID.TID 0000.0001)   set mate pointer for diag #   222  SItaux   , Parms: UU      U1 , mate:   223
(PID.TID 0000.0001)   set mate pointer for diag #   223  SItauy   , Parms: VV      U1 , mate:   222
(PID.TID 0000.0001)   set mate pointer for diag #   220  SIuice   , Parms: UU      M1 , mate:   221
(PID.TID 0000.0001)   set mate pointer for diag #   221  SIvice   , Parms: VV      M1 , mate:   220
(PID.TID 0000.0001)   set mate pointer for diag #   222  SItaux   , Parms: UU      U1 , mate:   223
(PID.TID 0000.0001)   set mate pointer for diag #   223  SItauy   , Parms: VV      U1 , mate:   222
(PID.TID 0000.0001) DIAGNOSTICS_SET_POINTERS: Set levels for Outp.Stream: surfDiag
(PID.TID 0000.0001)  Levels:       1.
(PID.TID 0000.0001) DIAGNOSTICS_SET_POINTERS: Set levels for Outp.Stream: iceDiag
(PID.TID 0000.0001)  Levels:       1.
(PID.TID 0000.0001) DIAGNOSTICS_SET_POINTERS: Set levels for Outp.Stream: iceInst
(PID.TID 0000.0001)  Levels:       1.
(PID.TID 0000.0001) DIAGNOSTICS_SET_POINTERS: Set levels for Outp.Stream: iceNcat
(PID.TID 0000.0001)  Levels:       1.   2.   3.   4.   5.
(PID.TID 0000.0001) DIAGNOSTICS_SET_POINTERS: Set levels for Outp.Stream: iceEnerg
(PID.TID 0000.0001)  Levels:       1.   2.   3.   4.   5.   6.   7.   8.   9.  10.  11.  12.  13.  14.  15.  16.  17.  18.  19.  20.
(PID.TID 0000.0001) DIAGNOSTICS_SET_POINTERS: done
(PID.TID 0000.0001) ------------------------------------------------------------
(PID.TID 0000.0001) DIAGSTATS_SET_REGIONS: define no region
(PID.TID 0000.0001) ------------------------------------------------------------
(PID.TID 0000.0001) SETDIAG: Allocate  1 Levels for Stats-Diag #   211 SIarea
(PID.TID 0000.0001) SETDIAG: Allocate  1 Levels for Stats-Diag #   214 SIheff
(PID.TID 0000.0001) SETDIAG: Allocate  1 Levels for Stats-Diag #   216 SIhsnow
(PID.TID 0000.0001) SETDIAG: Allocate  1 Levels for Stats-Diag #    83 sIceLoad
(PID.TID 0000.0001) SETDIAG: Allocate  1 Levels for Stats-Diag #   220 SIuice
(PID.TID 0000.0001) SETDIAG: Allocate  1 Levels for Stats-Diag #   221 SIvice
(PID.TID 0000.0001) SETDIAG: Allocate  1 Levels for Stats-Diag #   222 SItaux
(PID.TID 0000.0001) SETDIAG: Allocate  1 Levels for Stats-Diag #   223 SItauy
(PID.TID 0000.0001) SETDIAG: Allocate  5 Levels for Stats-Diag #   282 SIareaN
(PID.TID 0000.0001) SETDIAG: Allocate  5 Levels for Stats-Diag #   281 SIheffN
(PID.TID 0000.0001) SETDIAG: Allocate  5 Levels for Stats-Diag #   283 SIhsnowN
(PID.TID 0000.0001) SETDIAG: Allocate  5 Levels for Stats-Diag #   287 SIqSnow
(PID.TID 0000.0001) SETDIAG: Allocate 20 Levels for Stats-Diag #   286 SIqIce
(PID.TID 0000.0001) SETDIAG: Allocate  5 Levels for Stats-Diag #   288 SImeltPd
(PID.TID 0000.0001) SETDIAG: Allocate  5 Levels for Stats-Diag #   285 SItIces
(PID.TID 0000.0001) SETDIAG: Allocate  5 Levels for Stats-Diag #   289 SIiceAge
(PID.TID 0000.0001) SETDIAG: Allocate  5 Levels for Stats-Diag #   290 SI_dArea
(PID.TID 0000.0001) SETDIAG: Allocate  5 Levels for Stats-Diag #   291 SI_dHeff
(PID.TID 0000.0001) SETDIAG: Allocate  5 Levels for Stats-Diag #   292 SI_dHsnw
(PID.TID 0000.0001) SETDIAG: Allocate  5 Levels for Stats-Diag #   295 SI_dQSnw
(PID.TID 0000.0001) SETDIAG: Allocate 20 Levels for Stats-Diag #   294 SI_dQIce
(PID.TID 0000.0001)   space allocated for all stats-diags:     103 levels
(PID.TID 0000.0001) DIAGSTATS_SET_POINTERS: done
(PID.TID 0000.0001) ------------------------------------------------------------
(PID.TID 0000.0001) DIAGSTATS_INI_IO: open file: iceStDiag.0000000000.txt , unit=    37
(PID.TID 0000.0001) INI_GLOBAL_DOMAIN: Found  19 CS-corner Pts in the domain
(PID.TID 0000.0001) %MON fCori_max                    =   1.4574827780704E-04
(PID.TID 0000.0001) %MON fCori_min                    =  -1.4574827780704E-04
(PID.TID 0000.0001) %MON fCori_mean                   =   0.0000000000000E+00
(PID.TID 0000.0001) %MON fCori_sd                     =   8.4202189509968E-05
(PID.TID 0000.0001) %MON fCoriG_max                   =   1.4584247033981E-04
(PID.TID 0000.0001) %MON fCoriG_min                   =  -1.4584247033981E-04
(PID.TID 0000.0001) %MON fCoriG_mean                  =   2.2587545260115E-21
(PID.TID 0000.0001) %MON fCoriG_sd                    =   8.4202189509968E-05
(PID.TID 0000.0001) %MON fCoriCos_max                 =   1.4580166994612E-04
(PID.TID 0000.0001) %MON fCoriCos_min                 =   5.2407700865903E-06
(PID.TID 0000.0001) %MON fCoriCos_mean                =   1.1514045869113E-04
(PID.TID 0000.0001) %MON fCoriCos_sd                  =   3.0375849106513E-05
(PID.TID 0000.0001) INI_CG2D: CG2D normalisation factor =  1.9156564154949553E-04
(PID.TID 0000.0001) 
(PID.TID 0000.0001) // =======================================================
(PID.TID 0000.0001) // Model configuration
(PID.TID 0000.0001) // =======================================================
(PID.TID 0000.0001) //
(PID.TID 0000.0001) // "Physical" paramters ( PARM01 in namelist )
(PID.TID 0000.0001) //
(PID.TID 0000.0001) buoyancyRelation = /* Type of relation to get Buoyancy */
(PID.TID 0000.0001)               'OCEANIC'
(PID.TID 0000.0001)     ;
(PID.TID 0000.0001) fluidIsAir   =  /* fluid major constituent is Air */
(PID.TID 0000.0001)                   F
(PID.TID 0000.0001)     ;
(PID.TID 0000.0001) fluidIsWater =  /* fluid major constituent is Water */
(PID.TID 0000.0001)                   T
(PID.TID 0000.0001)     ;
(PID.TID 0000.0001) usingPCoords =  /* use p (or p*) vertical coordinate */
(PID.TID 0000.0001)                   F
(PID.TID 0000.0001)     ;
(PID.TID 0000.0001) usingZCoords =  /* use z (or z*) vertical coordinate */
(PID.TID 0000.0001)                   T
(PID.TID 0000.0001)     ;
(PID.TID 0000.0001) tRef =   /* Reference temperature profile ( oC or K ) */
(PID.TID 0000.0001)    15 @  2.000000000000000E+01              /* K =  1: 15 */
(PID.TID 0000.0001)     ;
(PID.TID 0000.0001) sRef =   /* Reference salinity profile ( psu ) */
(PID.TID 0000.0001)    15 @  3.500000000000000E+01              /* K =  1: 15 */
(PID.TID 0000.0001)     ;
(PID.TID 0000.0001) useStrainTensionVisc= /* Use StrainTension Form of Viscous Operator */
(PID.TID 0000.0001)                   F
(PID.TID 0000.0001)     ;
(PID.TID 0000.0001) useVariableVisc = /* Use variable horizontal viscosity */
(PID.TID 0000.0001)                   F
(PID.TID 0000.0001)     ;
(PID.TID 0000.0001) useHarmonicVisc = /* Use harmonic horizontal viscosity */
(PID.TID 0000.0001)                   T
(PID.TID 0000.0001)     ;
(PID.TID 0000.0001) useBiharmonicVisc= /* Use biharmonic horiz.  viscosity */
(PID.TID 0000.0001)                   F
(PID.TID 0000.0001)     ;
(PID.TID 0000.0001) useSmag3D = /* Use isotropic 3-D Smagorinsky viscosity */
(PID.TID 0000.0001)                   F
(PID.TID 0000.0001)     ;
(PID.TID 0000.0001) viscAh  =   /* Lateral harmonic viscosity ( m^2/s ) */
(PID.TID 0000.0001)                 3.000000000000000E+05
(PID.TID 0000.0001)     ;
(PID.TID 0000.0001) viscA4  =   /* Lateral biharmonic viscosity ( m^4/s ) */
(PID.TID 0000.0001)                 0.000000000000000E+00
(PID.TID 0000.0001)     ;
(PID.TID 0000.0001) no_slip_sides =  /* Viscous BCs: No-slip sides */
(PID.TID 0000.0001)                   T
(PID.TID 0000.0001)     ;
(PID.TID 0000.0001) sideDragFactor = /* side-drag scaling factor (non-dim) */
(PID.TID 0000.0001)                 2.000000000000000E+00
(PID.TID 0000.0001)     ;
(PID.TID 0000.0001) viscArNr = /* vertical profile of vertical viscosity ( m^2/s )*/
(PID.TID 0000.0001)    15 @  1.000000000000000E-03              /* K =  1: 15 */
(PID.TID 0000.0001)     ;
(PID.TID 0000.0001) no_slip_bottom =  /* Viscous BCs: No-slip bottom */
(PID.TID 0000.0001)                   T
(PID.TID 0000.0001)     ;
(PID.TID 0000.0001) bottomVisc_pCell = /* Partial-cell in bottom Visc. BC */
(PID.TID 0000.0001)                   F
(PID.TID 0000.0001)     ;
(PID.TID 0000.0001) bottomDragLinear = /* linear bottom-drag coefficient ( m/s ) */
(PID.TID 0000.0001)                 0.000000000000000E+00
(PID.TID 0000.0001)     ;
(PID.TID 0000.0001) bottomDragQuadratic = /* quadratic bottom-drag coefficient (-) */
(PID.TID 0000.0001)                 0.000000000000000E+00
(PID.TID 0000.0001)     ;
(PID.TID 0000.0001) selectBotDragQuadr = /* select quadratic bottom drag options */
(PID.TID 0000.0001)                      -1
(PID.TID 0000.0001)     ;
(PID.TID 0000.0001) diffKhT =   /* Laplacian diffusion of heat laterally ( m^2/s ) */
(PID.TID 0000.0001)                 0.000000000000000E+00
(PID.TID 0000.0001)     ;
(PID.TID 0000.0001) diffK4T =   /* Biharmonic diffusion of heat laterally ( m^4/s ) */
(PID.TID 0000.0001)                 0.000000000000000E+00
(PID.TID 0000.0001)     ;
(PID.TID 0000.0001) diffKhS =   /* Laplacian diffusion of salt laterally ( m^2/s ) */
(PID.TID 0000.0001)                 0.000000000000000E+00
(PID.TID 0000.0001)     ;
(PID.TID 0000.0001) diffK4S =   /* Biharmonic diffusion of salt laterally ( m^4/s ) */
(PID.TID 0000.0001)                 0.000000000000000E+00
(PID.TID 0000.0001)     ;
(PID.TID 0000.0001) diffKrNrT = /* vertical profile of vertical diffusion of Temp ( m^2/s )*/
(PID.TID 0000.0001)    15 @  3.000000000000000E-05              /* K =  1: 15 */
(PID.TID 0000.0001)     ;
(PID.TID 0000.0001) diffKrNrS = /* vertical profile of vertical diffusion of Salt ( m^2/s )*/
(PID.TID 0000.0001)    15 @  3.000000000000000E-05              /* K =  1: 15 */
(PID.TID 0000.0001)     ;
(PID.TID 0000.0001) diffKrBL79surf = /* Surface diffusion for Bryan and Lewis 79 ( m^2/s ) */
(PID.TID 0000.0001)                 0.000000000000000E+00
(PID.TID 0000.0001)     ;
(PID.TID 0000.0001) diffKrBL79deep = /* Deep diffusion for Bryan and Lewis 1979 ( m^2/s ) */
(PID.TID 0000.0001)                 0.000000000000000E+00
(PID.TID 0000.0001)     ;
(PID.TID 0000.0001) diffKrBL79scl = /* Depth scale for Bryan and Lewis 1979 ( m ) */
(PID.TID 0000.0001)                 2.000000000000000E+02
(PID.TID 0000.0001)     ;
(PID.TID 0000.0001) diffKrBL79Ho = /* Turning depth for Bryan and Lewis 1979 ( m ) */
(PID.TID 0000.0001)                -2.000000000000000E+03
(PID.TID 0000.0001)     ;
(PID.TID 0000.0001) ivdc_kappa = /* Implicit Vertical Diffusivity for Convection ( m^2/s) */
(PID.TID 0000.0001)                 1.000000000000000E+01
(PID.TID 0000.0001)     ;
(PID.TID 0000.0001) hMixCriteria=  /* Criteria for mixed-layer diagnostic */
(PID.TID 0000.0001)                -8.000000000000000E-01
(PID.TID 0000.0001)     ;
(PID.TID 0000.0001) dRhoSmall =  /* Parameter for mixed-layer diagnostic */
(PID.TID 0000.0001)                 1.000000000000000E-06
(PID.TID 0000.0001)     ;
(PID.TID 0000.0001) hMixSmooth=  /* Smoothing parameter for mixed-layer diagnostic */
(PID.TID 0000.0001)                 0.000000000000000E+00
(PID.TID 0000.0001)     ;
(PID.TID 0000.0001) eosType =  /* Type of Equation of State */
(PID.TID 0000.0001)               'JMD95Z'
(PID.TID 0000.0001)     ;
(PID.TID 0000.0001) selectP_inEOS_Zc = /* select pressure to use in EOS (0,1,2,3) */
(PID.TID 0000.0001)                       0
(PID.TID 0000.0001)     0= -g*rhoConst*z ; 1= pRef (from tRef,sRef); 2= Hyd P ; 3= Hyd+NH P
(PID.TID 0000.0001)     ;
(PID.TID 0000.0001) HeatCapacity_Cp =  /* Specific heat capacity ( J/kg/K ) */
(PID.TID 0000.0001)                 3.994000000000000E+03
(PID.TID 0000.0001)     ;
(PID.TID 0000.0001) celsius2K = /* 0 degree Celsius converted to Kelvin ( K ) */
(PID.TID 0000.0001)                 2.731500000000000E+02
(PID.TID 0000.0001)     ;
(PID.TID 0000.0001) rhoConst  = /* Reference density (Boussinesq)  ( kg/m^3 ) */
(PID.TID 0000.0001)                 1.035000000000000E+03
(PID.TID 0000.0001)     ;
(PID.TID 0000.0001) rhoFacC = /* normalized Reference density @ cell-Center (-) */
(PID.TID 0000.0001)    15 @  1.000000000000000E+00              /* K =  1: 15 */
(PID.TID 0000.0001)     ;
(PID.TID 0000.0001) rhoFacF = /* normalized Reference density @ W-Interface (-) */
(PID.TID 0000.0001)    16 @  1.000000000000000E+00              /* K =  1: 16 */
(PID.TID 0000.0001)     ;
(PID.TID 0000.0001) rhoConstFresh = /* Fresh-water reference density ( kg/m^3 ) */
(PID.TID 0000.0001)                 1.000000000000000E+03
(PID.TID 0000.0001)     ;
(PID.TID 0000.0001) gravity =   /* Gravitational acceleration ( m/s^2 ) */
(PID.TID 0000.0001)                 9.810000000000000E+00
(PID.TID 0000.0001)     ;
(PID.TID 0000.0001) gBaro =   /* Barotropic gravity ( m/s^2 ) */
(PID.TID 0000.0001)                 9.810000000000000E+00
(PID.TID 0000.0001)     ;
(PID.TID 0000.0001) gravFacC = /* gravity factor (vs surf.) @ cell-Center (-) */
(PID.TID 0000.0001)    15 @  1.000000000000000E+00              /* K =  1: 15 */
(PID.TID 0000.0001)     ;
(PID.TID 0000.0001) gravFacF = /* gravity factor (vs surf.) @ W-Interface (-) */
(PID.TID 0000.0001)    16 @  1.000000000000000E+00              /* K =  1: 16 */
(PID.TID 0000.0001)     ;
(PID.TID 0000.0001) rotationPeriod =   /* Rotation Period ( s ) */
(PID.TID 0000.0001)                 8.616400000000000E+04
(PID.TID 0000.0001)     ;
(PID.TID 0000.0001) omega =   /* Angular velocity ( rad/s ) */
(PID.TID 0000.0001)                 7.292123516990375E-05
(PID.TID 0000.0001)     ;
(PID.TID 0000.0001) f0 =   /* Reference coriolis parameter ( 1/s ) */
(PID.TID 0000.0001)                 1.000000000000000E-04
(PID.TID 0000.0001)     ;
(PID.TID 0000.0001) beta =   /* Beta ( 1/(m.s) ) */
(PID.TID 0000.0001)                 9.999999999999999E-12
(PID.TID 0000.0001)     ;
(PID.TID 0000.0001) fPrime =   /* Second coriolis parameter ( 1/s ) */
(PID.TID 0000.0001)                 0.000000000000000E+00
(PID.TID 0000.0001)     ;
(PID.TID 0000.0001) rigidLid =   /* Rigid lid on/off flag */
(PID.TID 0000.0001)                   F
(PID.TID 0000.0001)     ;
(PID.TID 0000.0001) implicitFreeSurface =   /* Implicit free surface on/off flag */
(PID.TID 0000.0001)                   T
(PID.TID 0000.0001)     ;
(PID.TID 0000.0001) freeSurfFac =   /* Implicit free surface factor */
(PID.TID 0000.0001)                 1.000000000000000E+00
(PID.TID 0000.0001)     ;
(PID.TID 0000.0001) implicSurfPress =  /* Surface Pressure implicit factor (0-1)*/
(PID.TID 0000.0001)                 1.000000000000000E+00
(PID.TID 0000.0001)     ;
(PID.TID 0000.0001) implicDiv2DFlow =  /* Barot. Flow Div. implicit factor (0-1)*/
(PID.TID 0000.0001)                 1.000000000000000E+00
(PID.TID 0000.0001)     ;
(PID.TID 0000.0001) uniformLin_PhiSurf = /* use uniform Bo_surf on/off flag*/
(PID.TID 0000.0001)                   T
(PID.TID 0000.0001)     ;
(PID.TID 0000.0001) uniformFreeSurfLev = /* free-surface level-index is uniform */
(PID.TID 0000.0001)                   T
(PID.TID 0000.0001)     ;
(PID.TID 0000.0001) hFacMin =   /* minimum partial cell factor (hFac) */
(PID.TID 0000.0001)                 1.000000000000000E-01
(PID.TID 0000.0001)     ;
(PID.TID 0000.0001) hFacMinDr = /* minimum partial cell thickness ( m) */
(PID.TID 0000.0001)                 2.000000000000000E+01
(PID.TID 0000.0001)     ;
(PID.TID 0000.0001) exactConserv =  /* Exact Volume Conservation on/off flag*/
(PID.TID 0000.0001)                   T
(PID.TID 0000.0001)     ;
(PID.TID 0000.0001) linFSConserveTr = /* Tracer correction for Lin Free Surface on/off flag*/
(PID.TID 0000.0001)                   F
(PID.TID 0000.0001)     ;
(PID.TID 0000.0001) nonlinFreeSurf = /* Non-linear Free Surf. options (-1,0,1,2,3)*/
(PID.TID 0000.0001)                       4
(PID.TID 0000.0001)      -1,0= Off ; 1,2,3= On, 2=+rescale gU,gV, 3=+update cg2d solv.
(PID.TID 0000.0001)     ;
(PID.TID 0000.0001) hFacInf =   /* lower threshold for hFac (nonlinFreeSurf only)*/
(PID.TID 0000.0001)                 2.000000000000000E-01
(PID.TID 0000.0001)     ;
(PID.TID 0000.0001) hFacSup =   /* upper threshold for hFac (nonlinFreeSurf only)*/
(PID.TID 0000.0001)                 2.000000000000000E+00
(PID.TID 0000.0001)     ;
(PID.TID 0000.0001) select_rStar = /* r* Vertical coord. options (=0 r coord.; >0 uses r*)*/
(PID.TID 0000.0001)                       2
(PID.TID 0000.0001)     ;
(PID.TID 0000.0001) useRealFreshWaterFlux = /* Real Fresh Water Flux on/off flag*/
(PID.TID 0000.0001)                   T
(PID.TID 0000.0001)     ;
(PID.TID 0000.0001) temp_EvPrRn = /* Temp. of Evap/Prec/R (UNSET=use local T)(oC)*/
(PID.TID 0000.0001)                 1.234567000000000E+05
(PID.TID 0000.0001)     ;
(PID.TID 0000.0001) salt_EvPrRn = /* Salin. of Evap/Prec/R (UNSET=use local S)(psu)*/
(PID.TID 0000.0001)                 0.000000000000000E+00
(PID.TID 0000.0001)     ;
(PID.TID 0000.0001) selectAddFluid = /* option for mass source/sink of fluid (=0: off) */
(PID.TID 0000.0001)                       0
(PID.TID 0000.0001)     ;
(PID.TID 0000.0001) temp_addMass = /* Temp. of addMass array (UNSET=use local T)(oC)*/
(PID.TID 0000.0001)                 1.234567000000000E+05
(PID.TID 0000.0001)     ;
(PID.TID 0000.0001) salt_addMass = /* Salin. of addMass array (UNSET=use local S)(psu)*/
(PID.TID 0000.0001)                 0.000000000000000E+00
(PID.TID 0000.0001)     ;
(PID.TID 0000.0001) use3Dsolver = /* use 3-D pressure solver on/off flag */
(PID.TID 0000.0001)                   F
(PID.TID 0000.0001)     ;
(PID.TID 0000.0001) nonHydrostatic =  /* Non-Hydrostatic on/off flag */
(PID.TID 0000.0001)                   F
(PID.TID 0000.0001)     ;
(PID.TID 0000.0001) nh_Am2 = /* Non-Hydrostatic terms scaling factor */
(PID.TID 0000.0001)                 1.000000000000000E+00
(PID.TID 0000.0001)     ;
(PID.TID 0000.0001) implicitNHPress = /* Non-Hyd Pressure implicit factor (0-1)*/
(PID.TID 0000.0001)                 1.000000000000000E+00
(PID.TID 0000.0001)     ;
(PID.TID 0000.0001) selectNHfreeSurf = /* Non-Hyd (free-)Surface option */
(PID.TID 0000.0001)                       0
(PID.TID 0000.0001)     ;
(PID.TID 0000.0001) quasiHydrostatic = /* Quasi-Hydrostatic on/off flag */
(PID.TID 0000.0001)                   F
(PID.TID 0000.0001)     ;
(PID.TID 0000.0001) calc_wVelocity = /* vertical velocity calculation on/off flag */
(PID.TID 0000.0001)                   T
(PID.TID 0000.0001)     ;
(PID.TID 0000.0001) momStepping =  /* Momentum equation on/off flag */
(PID.TID 0000.0001)                   T
(PID.TID 0000.0001)     ;
(PID.TID 0000.0001) vectorInvariantMomentum= /* Vector-Invariant Momentum on/off */
(PID.TID 0000.0001)                   T
(PID.TID 0000.0001)     ;
(PID.TID 0000.0001) momAdvection =  /* Momentum advection on/off flag */
(PID.TID 0000.0001)                   T
(PID.TID 0000.0001)     ;
(PID.TID 0000.0001) momViscosity =  /* Momentum viscosity on/off flag */
(PID.TID 0000.0001)                   T
(PID.TID 0000.0001)     ;
(PID.TID 0000.0001) momImplVertAdv= /* Momentum implicit vert. advection on/off*/
(PID.TID 0000.0001)                   F
(PID.TID 0000.0001)     ;
(PID.TID 0000.0001) implicitViscosity = /* Implicit viscosity on/off flag */
(PID.TID 0000.0001)                   F
(PID.TID 0000.0001)     ;
(PID.TID 0000.0001) selectImplicitDrag= /* Implicit bot Drag options (0,1,2)*/
(PID.TID 0000.0001)                       0
(PID.TID 0000.0001)     0= Expl. ; 1= Impl. on provis. Vel ; 2= Fully Impl (with surf.P)
(PID.TID 0000.0001)     ;
(PID.TID 0000.0001) metricTerms =  /* metric-Terms on/off flag */
(PID.TID 0000.0001)                   F
(PID.TID 0000.0001)     ;
(PID.TID 0000.0001) useNHMTerms = /* Non-Hydrostatic Metric-Terms on/off */
(PID.TID 0000.0001)                   F
(PID.TID 0000.0001)     ;
(PID.TID 0000.0001) selectCoriMap = /* Coriolis Map options (0,1,2,3)*/
(PID.TID 0000.0001)                       2
(PID.TID 0000.0001)     0= f-Plane ; 1= Beta-Plane ; 2= Spherical ; 3= read from file
(PID.TID 0000.0001)     ;
(PID.TID 0000.0001) use3dCoriolis = /* 3-D Coriolis on/off flag */
(PID.TID 0000.0001)                   F
(PID.TID 0000.0001)     ;
(PID.TID 0000.0001) useCoriolis =  /* Coriolis on/off flag */
(PID.TID 0000.0001)                   T
(PID.TID 0000.0001)     ;
(PID.TID 0000.0001) useCDscheme =  /* CD scheme on/off flag */
(PID.TID 0000.0001)                   F
(PID.TID 0000.0001)     ;
(PID.TID 0000.0001) useEnergyConservingCoriolis= /* Flx-Form Coriolis scheme flag */
(PID.TID 0000.0001)                   F
(PID.TID 0000.0001)     ;
(PID.TID 0000.0001) useJamartWetPoints= /* Coriolis WetPoints method flag */
(PID.TID 0000.0001)                   F
(PID.TID 0000.0001)     ;
(PID.TID 0000.0001) useJamartMomAdv= /* V.I Non-linear terms Jamart flag */
(PID.TID 0000.0001)                   F
(PID.TID 0000.0001)     ;
(PID.TID 0000.0001) useAbsVorticity= /* V.I Works with f+zeta in Coriolis */
(PID.TID 0000.0001)                   F
(PID.TID 0000.0001)     ;
(PID.TID 0000.0001) selectVortScheme= /* V.I Scheme selector for Vorticity-Term */
(PID.TID 0000.0001)                       1
(PID.TID 0000.0001)    = 0 : enstrophy (Shallow-Water Eq.) conserving scheme by Sadourny, JAS 75
(PID.TID 0000.0001)    = 1 : same as 0 with modified hFac
(PID.TID 0000.0001)    = 2 : energy conserving scheme (used by Sadourny in JAS 75 paper)
(PID.TID 0000.0001)    = 3 : energy (general) and enstrophy (2D, nonDiv.) conserving scheme
(PID.TID 0000.0001)          from Sadourny (Burridge & Haseler, ECMWF Rep.4, 1977)
(PID.TID 0000.0001)     ;
(PID.TID 0000.0001) upwindVorticity= /* V.I Upwind bias vorticity flag */
(PID.TID 0000.0001)                   F
(PID.TID 0000.0001)     ;
(PID.TID 0000.0001) highOrderVorticity= /* V.I High order vort. advect. flag */
(PID.TID 0000.0001)                   F
(PID.TID 0000.0001)     ;
(PID.TID 0000.0001) upwindShear= /* V.I Upwind vertical Shear advection flag */
(PID.TID 0000.0001)                   F
(PID.TID 0000.0001)     ;
(PID.TID 0000.0001) selectKEscheme= /* V.I Kinetic Energy scheme selector */
(PID.TID 0000.0001)                       0
(PID.TID 0000.0001)     ;
(PID.TID 0000.0001) momForcing =  /* Momentum forcing on/off flag */
(PID.TID 0000.0001)                   T
(PID.TID 0000.0001)     ;
(PID.TID 0000.0001) momTidalForcing = /* Momentum Tidal forcing on/off flag */
(PID.TID 0000.0001)                   T
(PID.TID 0000.0001)     ;
(PID.TID 0000.0001) momPressureForcing =  /* Momentum pressure term on/off flag */
(PID.TID 0000.0001)                   T
(PID.TID 0000.0001)     ;
(PID.TID 0000.0001) implicitIntGravWave= /* Implicit Internal Gravity Wave flag */
(PID.TID 0000.0001)                   F
(PID.TID 0000.0001)     ;
(PID.TID 0000.0001) staggerTimeStep =    /* Stagger time stepping on/off flag */
(PID.TID 0000.0001)                   T
(PID.TID 0000.0001)     ;
(PID.TID 0000.0001) doResetHFactors = /* reset thickness factors @ each time-step */
(PID.TID 0000.0001)                   F
(PID.TID 0000.0001)     ;
(PID.TID 0000.0001) multiDimAdvection =  /* enable/disable Multi-Dim Advection */
(PID.TID 0000.0001)                   T
(PID.TID 0000.0001)     ;
(PID.TID 0000.0001) useMultiDimAdvec =   /* Multi-Dim Advection is/is-not used */
(PID.TID 0000.0001)                   F
(PID.TID 0000.0001)     ;
(PID.TID 0000.0001) implicitDiffusion = /* Implicit Diffusion on/off flag */
(PID.TID 0000.0001)                   T
(PID.TID 0000.0001)     ;
(PID.TID 0000.0001) tempStepping =  /* Temperature equation on/off flag */
(PID.TID 0000.0001)                   T
(PID.TID 0000.0001)     ;
(PID.TID 0000.0001) tempAdvection = /* Temperature advection on/off flag */
(PID.TID 0000.0001)                   T
(PID.TID 0000.0001)     ;
(PID.TID 0000.0001) tempImplVertAdv = /* Temp. implicit vert. advection on/off */
(PID.TID 0000.0001)                   F
(PID.TID 0000.0001)     ;
(PID.TID 0000.0001) tempForcing  =  /* Temperature forcing on/off flag */
(PID.TID 0000.0001)                   T
(PID.TID 0000.0001)     ;
(PID.TID 0000.0001) balanceQnet  =  /* balance net heat-flux on/off flag */
(PID.TID 0000.0001)                   F
(PID.TID 0000.0001)     ;
(PID.TID 0000.0001) doThetaClimRelax = /* apply SST relaxation on/off flag */
(PID.TID 0000.0001)                   F
(PID.TID 0000.0001)     ;
(PID.TID 0000.0001) balanceThetaClimRelax= /* balance SST relaxation on/off flag */
(PID.TID 0000.0001)                   F
(PID.TID 0000.0001)     ;
(PID.TID 0000.0001) tempIsActiveTr = /* Temp. is a dynamically Active Tracer */
(PID.TID 0000.0001)                   T
(PID.TID 0000.0001)     ;
(PID.TID 0000.0001) saltStepping =  /* Salinity equation on/off flag */
(PID.TID 0000.0001)                   T
(PID.TID 0000.0001)     ;
(PID.TID 0000.0001) saltAdvection = /* Salinity advection on/off flag */
(PID.TID 0000.0001)                   T
(PID.TID 0000.0001)     ;
(PID.TID 0000.0001) saltImplVertAdv = /* Sali. implicit vert. advection on/off */
(PID.TID 0000.0001)                   F
(PID.TID 0000.0001)     ;
(PID.TID 0000.0001) saltForcing  =  /* Salinity forcing on/off flag */
(PID.TID 0000.0001)                   T
(PID.TID 0000.0001)     ;
(PID.TID 0000.0001) balanceEmPmR =  /* balance net fresh-water flux on/off flag */
(PID.TID 0000.0001)                   F
(PID.TID 0000.0001)     ;
(PID.TID 0000.0001) doSaltClimRelax = /* apply SSS relaxation on/off flag */
(PID.TID 0000.0001)                   F
(PID.TID 0000.0001)     ;
(PID.TID 0000.0001) balanceSaltClimRelax= /* balance SSS relaxation on/off flag */
(PID.TID 0000.0001)                   F
(PID.TID 0000.0001)     ;
(PID.TID 0000.0001) saltIsActiveTr = /* Salt  is a dynamically Active Tracer */
(PID.TID 0000.0001)                   T
(PID.TID 0000.0001)     ;
(PID.TID 0000.0001)  readBinaryPrec = /* Precision used for reading binary files */
(PID.TID 0000.0001)                      64
(PID.TID 0000.0001)     ;
(PID.TID 0000.0001) writeBinaryPrec = /* Precision used for writing binary files */
(PID.TID 0000.0001)                      32
(PID.TID 0000.0001)     ;
(PID.TID 0000.0001)  rwSuffixType =   /* select format of mds file suffix */
(PID.TID 0000.0001)                       0
(PID.TID 0000.0001)    = 0 : myIter (I10.10) ;   = 1 : 100*myTime (100th sec) ;
(PID.TID 0000.0001)    = 2 : myTime (seconds);   = 3 : myTime/360 (10th of hr);
(PID.TID 0000.0001)    = 4 : myTime/3600 (hours)
(PID.TID 0000.0001)     ;
(PID.TID 0000.0001)  globalFiles = /* write "global" (=not per tile) files */
(PID.TID 0000.0001)                   F
(PID.TID 0000.0001)     ;
(PID.TID 0000.0001)  useSingleCpuIO = /* only master MPI process does I/O */
(PID.TID 0000.0001)                   T
(PID.TID 0000.0001)     ;
(PID.TID 0000.0001)  useSingleCpuInput = /* only master process reads input */
(PID.TID 0000.0001)                   T
(PID.TID 0000.0001)     ;
(PID.TID 0000.0001) /* debLev[*]  : level of debug & auxiliary message printing */
(PID.TID 0000.0001) debLevZero =  0 ; /* level of disabled aux. msg printing */
(PID.TID 0000.0001)    debLevA =  1 ; /* level of minimum  aux. msg printing */
(PID.TID 0000.0001)    debLevB =  2 ; /* level of low aux. print (report read-file opening)*/
(PID.TID 0000.0001)    debLevC =  3 ; /* level of moderate debug prt (most pkgs debug msg) */
(PID.TID 0000.0001)    debLevD =  4 ; /* level of enhanced debug prt (add DEBUG_STATS prt) */
(PID.TID 0000.0001)    debLevE =  5 ; /* level of extensive debug printing */
(PID.TID 0000.0001) debugLevel =  /* select debug printing level */
(PID.TID 0000.0001)                       2
(PID.TID 0000.0001)     ;
(PID.TID 0000.0001)  plotLevel =  /* select PLOT_FIELD printing level */
(PID.TID 0000.0001)                       2
(PID.TID 0000.0001)     ;
(PID.TID 0000.0001) //
(PID.TID 0000.0001) // Elliptic solver(s) paramters ( PARM02 in namelist )
(PID.TID 0000.0001) //
(PID.TID 0000.0001) cg2dMaxIters =   /* Upper limit on 2d con. grad iterations  */
(PID.TID 0000.0001)                     150
(PID.TID 0000.0001)     ;
(PID.TID 0000.0001) cg2dChkResFreq =   /* 2d con. grad convergence test frequency */
(PID.TID 0000.0001)                       1
(PID.TID 0000.0001)     ;
(PID.TID 0000.0001) cg2dUseMinResSol= /* use cg2d last-iter(=0) / min-resid.(=1) solution */
(PID.TID 0000.0001)                       0
(PID.TID 0000.0001)     ;
(PID.TID 0000.0001) cg2dTargetResidual =   /* 2d con. grad target residual  */
(PID.TID 0000.0001)                 1.000000000000000E-07
(PID.TID 0000.0001)     ;
(PID.TID 0000.0001) cg2dTargetResWunit =   /* CG2d target residual [W units] */
(PID.TID 0000.0001)                -1.000000000000000E+00
(PID.TID 0000.0001)     ;
(PID.TID 0000.0001) cg2dPreCondFreq =   /* Freq. for updating cg2d preconditioner */
(PID.TID 0000.0001)                       1
(PID.TID 0000.0001)     ;
(PID.TID 0000.0001) useSRCGSolver =  /* use single reduction CG solver(s) */
(PID.TID 0000.0001)                   F
(PID.TID 0000.0001)     ;
(PID.TID 0000.0001) printResidualFreq = /* Freq. for printing CG residual */
(PID.TID 0000.0001)                       0
(PID.TID 0000.0001)     ;
(PID.TID 0000.0001) //
(PID.TID 0000.0001) // Time stepping paramters ( PARM03 in namelist )
(PID.TID 0000.0001) //
(PID.TID 0000.0001) deltaTMom =   /* Momentum equation timestep ( s ) */
(PID.TID 0000.0001)                 9.000000000000000E+02
(PID.TID 0000.0001)     ;
(PID.TID 0000.0001) deltaTFreeSurf = /* FreeSurface equation timestep ( s ) */
(PID.TID 0000.0001)                 9.000000000000000E+02
(PID.TID 0000.0001)     ;
(PID.TID 0000.0001) dTtracerLev =  /* Tracer equation timestep ( s ) */
(PID.TID 0000.0001)    15 @  9.000000000000000E+02              /* K =  1: 15 */
(PID.TID 0000.0001)     ;
(PID.TID 0000.0001) deltaTClock  =   /* Model clock timestep ( s ) */
(PID.TID 0000.0001)                 9.000000000000000E+02
(PID.TID 0000.0001)     ;
(PID.TID 0000.0001) cAdjFreq =   /* Convective adjustment interval ( s ) */
(PID.TID 0000.0001)                 0.000000000000000E+00
(PID.TID 0000.0001)     ;
(PID.TID 0000.0001) momForcingOutAB = /* =1: take Momentum Forcing out of Adams-Bash. stepping */
(PID.TID 0000.0001)                       0
(PID.TID 0000.0001)     ;
(PID.TID 0000.0001) tracForcingOutAB = /* =1: take T,S,pTr Forcing out of Adams-Bash. stepping */
(PID.TID 0000.0001)                       1
(PID.TID 0000.0001)     ;
(PID.TID 0000.0001) momDissip_In_AB = /* put Dissipation Tendency in Adams-Bash. stepping */
(PID.TID 0000.0001)                   T
(PID.TID 0000.0001)     ;
(PID.TID 0000.0001) doAB_onGtGs = /* apply AB on Tendencies (rather than on T,S)*/
(PID.TID 0000.0001)                   T
(PID.TID 0000.0001)     ;
(PID.TID 0000.0001) abEps =   /* Adams-Bashforth-2 stabilizing weight */
(PID.TID 0000.0001)                 1.000000000000000E-01
(PID.TID 0000.0001)     ;
(PID.TID 0000.0001) applyExchUV_early = /* Apply EXCH to U,V earlier in time-step */
(PID.TID 0000.0001)                   F
(PID.TID 0000.0001)     ;
(PID.TID 0000.0001) pickupStrictlyMatch= /* stop if pickup do not strictly match */
(PID.TID 0000.0001)                   F
(PID.TID 0000.0001)     ;
(PID.TID 0000.0001) nIter0   =   /* Run starting timestep number */
(PID.TID 0000.0001)                       0
(PID.TID 0000.0001)     ;
(PID.TID 0000.0001) nTimeSteps = /* Number of timesteps */
(PID.TID 0000.0001)                      96
(PID.TID 0000.0001)     ;
(PID.TID 0000.0001) nEndIter =   /* Run ending timestep number */
(PID.TID 0000.0001)                      96
(PID.TID 0000.0001)     ;
(PID.TID 0000.0001) baseTime =   /* Model base time ( s ) */
(PID.TID 0000.0001)                 0.000000000000000E+00
(PID.TID 0000.0001)     ;
(PID.TID 0000.0001) startTime =  /* Run start time ( s ) */
(PID.TID 0000.0001)                 0.000000000000000E+00
(PID.TID 0000.0001)     ;
(PID.TID 0000.0001) endTime  =   /* Integration ending time ( s ) */
(PID.TID 0000.0001)                 8.640000000000000E+04
(PID.TID 0000.0001)     ;
(PID.TID 0000.0001) pChkPtFreq = /* Permanent restart/pickup file interval ( s ) */
(PID.TID 0000.0001)                 0.000000000000000E+00
(PID.TID 0000.0001)     ;
(PID.TID 0000.0001) chkPtFreq  = /* Rolling restart/pickup file interval ( s ) */
(PID.TID 0000.0001)                 0.000000000000000E+00
(PID.TID 0000.0001)     ;
(PID.TID 0000.0001) pickup_write_mdsio =   /* Model IO flag. */
(PID.TID 0000.0001)                   T
(PID.TID 0000.0001)     ;
(PID.TID 0000.0001) pickup_read_mdsio =   /* Model IO flag. */
(PID.TID 0000.0001)                   T
(PID.TID 0000.0001)     ;
(PID.TID 0000.0001) writePickupAtEnd =   /* Model IO flag. */
(PID.TID 0000.0001)                   T
(PID.TID 0000.0001)     ;
(PID.TID 0000.0001) dumpFreq =   /* Model state write out interval ( s ). */
(PID.TID 0000.0001)                 0.000000000000000E+00
(PID.TID 0000.0001)     ;
(PID.TID 0000.0001) dumpInitAndLast= /* write out Initial & Last iter. model state */
(PID.TID 0000.0001)                   T
(PID.TID 0000.0001)     ;
(PID.TID 0000.0001) snapshot_mdsio =   /* Model IO flag. */
(PID.TID 0000.0001)                   T
(PID.TID 0000.0001)     ;
(PID.TID 0000.0001) monitorFreq =   /* Monitor output interval ( s ). */
(PID.TID 0000.0001)                 1.000000000000000E+00
(PID.TID 0000.0001)     ;
(PID.TID 0000.0001) monitorSelect = /* select group of variables to monitor */
(PID.TID 0000.0001)                       3
(PID.TID 0000.0001)     ;
(PID.TID 0000.0001) monitor_stdio =   /* Model IO flag. */
(PID.TID 0000.0001)                   T
(PID.TID 0000.0001)     ;
(PID.TID 0000.0001) externForcingPeriod =   /* forcing period (s) */
(PID.TID 0000.0001)                 0.000000000000000E+00
(PID.TID 0000.0001)     ;
(PID.TID 0000.0001) externForcingCycle =   /* period of the cyle (s). */
(PID.TID 0000.0001)                 0.000000000000000E+00
(PID.TID 0000.0001)     ;
(PID.TID 0000.0001) tauThetaClimRelax =   /* relaxation time scale (s) */
(PID.TID 0000.0001)                 0.000000000000000E+00
(PID.TID 0000.0001)     ;
(PID.TID 0000.0001) tauSaltClimRelax =   /* relaxation time scale (s) */
(PID.TID 0000.0001)                 0.000000000000000E+00
(PID.TID 0000.0001)     ;
(PID.TID 0000.0001) latBandClimRelax =   /* max. Lat. where relaxation */
(PID.TID 0000.0001)                 1.800000000000000E+02
(PID.TID 0000.0001)     ;
(PID.TID 0000.0001) //
(PID.TID 0000.0001) // Gridding paramters ( PARM04 in namelist )
(PID.TID 0000.0001) //
(PID.TID 0000.0001) usingCartesianGrid = /* Cartesian coordinates flag ( True/False ) */
(PID.TID 0000.0001)                   F
(PID.TID 0000.0001)     ;
(PID.TID 0000.0001) usingCylindricalGrid = /* Cylindrical coordinates flag ( True/False ) */
(PID.TID 0000.0001)                   F
(PID.TID 0000.0001)     ;
(PID.TID 0000.0001) usingSphericalPolarGrid = /* Spherical coordinates flag ( True/False ) */
(PID.TID 0000.0001)                   F
(PID.TID 0000.0001)     ;
(PID.TID 0000.0001) usingCurvilinearGrid = /* Curvilinear coordinates flag ( True/False ) */
(PID.TID 0000.0001)                   T
(PID.TID 0000.0001)     ;
(PID.TID 0000.0001) useMin4hFacEdges = /* set hFacW,S as minimum of adjacent hFacC factor */
(PID.TID 0000.0001)                   F
(PID.TID 0000.0001)     ;
(PID.TID 0000.0001) interViscAr_pCell = /* account for partial-cell in interior vert. viscosity */
(PID.TID 0000.0001)                   F
(PID.TID 0000.0001)     ;
(PID.TID 0000.0001) interDiffKr_pCell = /* account for partial-cell in interior vert. diffusion */
(PID.TID 0000.0001)                   F
(PID.TID 0000.0001)     ;
(PID.TID 0000.0001) pCellMix_select = /* option to enhance mixing near surface & bottom */
(PID.TID 0000.0001)                       0
(PID.TID 0000.0001)     ;
(PID.TID 0000.0001) selectSigmaCoord = /* Hybrid-Sigma Vert. Coordinate option */
(PID.TID 0000.0001)                       0
(PID.TID 0000.0001)     ;
(PID.TID 0000.0001) rSigmaBnd = /* r/sigma transition ( units of r ==  m ) */
(PID.TID 0000.0001)                 1.234567000000000E+05
(PID.TID 0000.0001)     ;
(PID.TID 0000.0001) rkSign =   /* index orientation relative to vertical coordinate */
(PID.TID 0000.0001)                -1.000000000000000E+00
(PID.TID 0000.0001)     ;
(PID.TID 0000.0001) gravitySign = /* gravity orientation relative to vertical coordinate */
(PID.TID 0000.0001)                -1.000000000000000E+00
(PID.TID 0000.0001)     ;
(PID.TID 0000.0001) seaLev_Z =  /* reference height of sea-level [m] */
(PID.TID 0000.0001)                 0.000000000000000E+00
(PID.TID 0000.0001)     ;
(PID.TID 0000.0001) top_Pres =  /* reference pressure at the top [Pa] */
(PID.TID 0000.0001)                 0.000000000000000E+00
(PID.TID 0000.0001)     ;
(PID.TID 0000.0001) mass2rUnit = /* convert mass per unit area [kg/m2] to r-units [m] */
(PID.TID 0000.0001)                 9.661835748792270E-04
(PID.TID 0000.0001)     ;
(PID.TID 0000.0001) rUnit2mass = /* convert r-units [m] to mass per unit area [kg/m2] */
(PID.TID 0000.0001)                 1.035000000000000E+03
(PID.TID 0000.0001)     ;
(PID.TID 0000.0001) drC =   /* C spacing ( units of r ) */
(PID.TID 0000.0001)                 2.500000000000000E+01,      /* K =  1 */
(PID.TID 0000.0001)                 6.000000000000000E+01,      /* K =  2 */
(PID.TID 0000.0001)                 8.500000000000000E+01,      /* K =  3 */
(PID.TID 0000.0001)                 1.200000000000000E+02,      /* K =  4 */
(PID.TID 0000.0001)                 1.650000000000000E+02,      /* K =  5 */
(PID.TID 0000.0001)                 2.150000000000000E+02,      /* K =  6 */
(PID.TID 0000.0001)                 2.650000000000000E+02,      /* K =  7 */
(PID.TID 0000.0001)                 3.150000000000000E+02,      /* K =  8 */
(PID.TID 0000.0001)                 3.650000000000000E+02,      /* K =  9 */
(PID.TID 0000.0001)                 4.150000000000000E+02,      /* K = 10 */
(PID.TID 0000.0001)                 4.650000000000000E+02,      /* K = 11 */
(PID.TID 0000.0001)                 5.150000000000000E+02,      /* K = 12 */
(PID.TID 0000.0001)                 5.650000000000000E+02,      /* K = 13 */
(PID.TID 0000.0001)                 6.150000000000000E+02,      /* K = 14 */
(PID.TID 0000.0001)                 6.650000000000000E+02,      /* K = 15 */
(PID.TID 0000.0001)                 3.450000000000000E+02       /* K = 16 */
(PID.TID 0000.0001)     ;
(PID.TID 0000.0001) drF =   /* W spacing ( units of r ) */
(PID.TID 0000.0001)                 5.000000000000000E+01,      /* K =  1 */
(PID.TID 0000.0001)                 7.000000000000000E+01,      /* K =  2 */
(PID.TID 0000.0001)                 1.000000000000000E+02,      /* K =  3 */
(PID.TID 0000.0001)                 1.400000000000000E+02,      /* K =  4 */
(PID.TID 0000.0001)                 1.900000000000000E+02,      /* K =  5 */
(PID.TID 0000.0001)                 2.400000000000000E+02,      /* K =  6 */
(PID.TID 0000.0001)                 2.900000000000000E+02,      /* K =  7 */
(PID.TID 0000.0001)                 3.400000000000000E+02,      /* K =  8 */
(PID.TID 0000.0001)                 3.900000000000000E+02,      /* K =  9 */
(PID.TID 0000.0001)                 4.400000000000000E+02,      /* K = 10 */
(PID.TID 0000.0001)                 4.900000000000000E+02,      /* K = 11 */
(PID.TID 0000.0001)                 5.400000000000000E+02,      /* K = 12 */
(PID.TID 0000.0001)                 5.900000000000000E+02,      /* K = 13 */
(PID.TID 0000.0001)                 6.400000000000000E+02,      /* K = 14 */
(PID.TID 0000.0001)                 6.900000000000000E+02       /* K = 15 */
(PID.TID 0000.0001)     ;
(PID.TID 0000.0001) radius_fromHorizGrid = /* sphere Radius of input horiz. grid */
(PID.TID 0000.0001)                 6.370000000000000E+06
(PID.TID 0000.0001)     ;
(PID.TID 0000.0001) rSphere =  /* Radius ( ignored - cartesian, m - spherical ) */
(PID.TID 0000.0001)                 6.370000000000000E+06
(PID.TID 0000.0001)     ;
(PID.TID 0000.0001) deepAtmosphere = /* Deep/Shallow Atmosphere flag (True/False) */
(PID.TID 0000.0001)                   F
(PID.TID 0000.0001)     ;
(PID.TID 0000.0001) xC =  /* xC(:,1,:,1) : P-point X coord ( deg. or m if cartesian) */
(PID.TID 0000.0001)                -4.439521994760536E+01,      /* I =  1 */
(PID.TID 0000.0001)                -4.295641272275883E+01,      /* I =  2 */
(PID.TID 0000.0001)                -4.122055553388957E+01,      /* I =  3 */
(PID.TID 0000.0001)                -3.923446288487304E+01,      /* I =  4 */
(PID.TID 0000.0001)                -3.702585158682200E+01,      /* I =  5 */
(PID.TID 0000.0001)                -3.461179367094151E+01,      /* I =  6 */
(PID.TID 0000.0001)                -3.200434569041793E+01,      /* I =  7 */
(PID.TID 0000.0001)                -2.921355965632675E+01,      /* I =  8 */
(PID.TID 0000.0001)                -2.624932223028290E+01,      /* I =  9 */
(PID.TID 0000.0001)                -2.312261250426344E+01,      /* I = 10 */
(PID.TID 0000.0001)                -1.984640717127058E+01,      /* I = 11 */
(PID.TID 0000.0001)                -1.643630800555134E+01,      /* I = 12 */
(PID.TID 0000.0001)                -1.291089806302069E+01,      /* I = 13 */
(PID.TID 0000.0001)                -9.291807802719402E+00,      /* I = 14 */
(PID.TID 0000.0001)                -5.603475335822332E+00,      /* I = 15 */
(PID.TID 0000.0001)                -1.872608513033445E+00,      /* I = 16 */
(PID.TID 0000.0001)                 1.872608513033445E+00,      /* I = 17 */
(PID.TID 0000.0001)                 5.603475335822332E+00,      /* I = 18 */
(PID.TID 0000.0001)                 9.291807802719402E+00,      /* I = 19 */
(PID.TID 0000.0001)                 1.291089806302069E+01,      /* I = 20 */
(PID.TID 0000.0001)                 1.643630800555134E+01,      /* I = 21 */
(PID.TID 0000.0001)                 1.984640717127058E+01,      /* I = 22 */
(PID.TID 0000.0001)                 2.312261250426344E+01,      /* I = 23 */
(PID.TID 0000.0001)                 2.624932223028290E+01,      /* I = 24 */
(PID.TID 0000.0001)                 2.921355965632675E+01,      /* I = 25 */
(PID.TID 0000.0001)                 3.200434569041793E+01,      /* I = 26 */
(PID.TID 0000.0001)                 3.461179367094151E+01,      /* I = 27 */
(PID.TID 0000.0001)                 3.702585158682200E+01,      /* I = 28 */
(PID.TID 0000.0001)                 3.923446288487304E+01,      /* I = 29 */
(PID.TID 0000.0001)                 4.122055553388957E+01,      /* I = 30 */
(PID.TID 0000.0001)                 4.295641272275883E+01,      /* I = 31 */
(PID.TID 0000.0001)                 4.439521994760536E+01       /* I = 32 */
(PID.TID 0000.0001)     ;
(PID.TID 0000.0001) yC =  /* yC(1,:,1,:) : P-point Y coord ( deg. or m if cartesian) */
(PID.TID 0000.0001)                -3.497677942598243E+01,      /* J =  1 */
(PID.TID 0000.0001)                -3.374005967394886E+01,      /* J =  2 */
(PID.TID 0000.0001)                -3.220655175667454E+01,      /* J =  3 */
(PID.TID 0000.0001)                -3.045756348838641E+01,      /* J =  4 */
(PID.TID 0000.0001)                -2.853728129852918E+01,      /* J =  5 */
(PID.TID 0000.0001)                -2.647426640173173E+01,      /* J =  6 */
(PID.TID 0000.0001)                -2.428936657094636E+01,      /* J =  7 */
(PID.TID 0000.0001)                -2.199915808312262E+01,      /* J =  8 */
(PID.TID 0000.0001)                -1.961768597440146E+01,      /* J =  9 */
(PID.TID 0000.0001)                -1.715743888281371E+01,      /* J = 10 */
(PID.TID 0000.0001)                -1.462993396899330E+01,      /* J = 11 */
(PID.TID 0000.0001)                -1.204608340464756E+01,      /* J = 12 */
(PID.TID 0000.0001)                -9.416429130284818E+00,      /* J = 13 */
(PID.TID 0000.0001)                -6.751293662992216E+00,      /* J = 14 */
(PID.TID 0000.0001)                -4.060875511835959E+00,      /* J = 15 */
(PID.TID 0000.0001)                -1.355307764409121E+00,      /* J = 16 */
(PID.TID 0000.0001)                 1.355307764409121E+00,      /* J = 17 */
(PID.TID 0000.0001)                 4.060875511835959E+00,      /* J = 18 */
(PID.TID 0000.0001)                 6.751293662992216E+00,      /* J = 19 */
(PID.TID 0000.0001)                 9.416429130284818E+00,      /* J = 20 */
(PID.TID 0000.0001)                 1.204608340464756E+01,      /* J = 21 */
(PID.TID 0000.0001)                 1.462993396899330E+01,      /* J = 22 */
(PID.TID 0000.0001)                 1.715743888281371E+01,      /* J = 23 */
(PID.TID 0000.0001)                 1.961768597440146E+01,      /* J = 24 */
(PID.TID 0000.0001)                 2.199915808312262E+01,      /* J = 25 */
(PID.TID 0000.0001)                 2.428936657094636E+01,      /* J = 26 */
(PID.TID 0000.0001)                 2.647426640173173E+01,      /* J = 27 */
(PID.TID 0000.0001)                 2.853728129852918E+01,      /* J = 28 */
(PID.TID 0000.0001)                 3.045756348838641E+01,      /* J = 29 */
(PID.TID 0000.0001)                 3.220655175667454E+01,      /* J = 30 */
(PID.TID 0000.0001)                 3.374005967394886E+01,      /* J = 31 */
(PID.TID 0000.0001)                 3.497677942598243E+01       /* J = 32 */
(PID.TID 0000.0001)     ;
(PID.TID 0000.0001) rcoord = /* P-point R coordinate (  units of r ) */
(PID.TID 0000.0001)                -2.500000000000000E+01,      /* K =  1 */
(PID.TID 0000.0001)                -8.500000000000000E+01,      /* K =  2 */
(PID.TID 0000.0001)                -1.700000000000000E+02,      /* K =  3 */
(PID.TID 0000.0001)                -2.900000000000000E+02,      /* K =  4 */
(PID.TID 0000.0001)                -4.550000000000000E+02,      /* K =  5 */
(PID.TID 0000.0001)                -6.700000000000000E+02,      /* K =  6 */
(PID.TID 0000.0001)                -9.350000000000000E+02,      /* K =  7 */
(PID.TID 0000.0001)                -1.250000000000000E+03,      /* K =  8 */
(PID.TID 0000.0001)                -1.615000000000000E+03,      /* K =  9 */
(PID.TID 0000.0001)                -2.030000000000000E+03,      /* K = 10 */
(PID.TID 0000.0001)                -2.495000000000000E+03,      /* K = 11 */
(PID.TID 0000.0001)                -3.010000000000000E+03,      /* K = 12 */
(PID.TID 0000.0001)                -3.575000000000000E+03,      /* K = 13 */
(PID.TID 0000.0001)                -4.190000000000000E+03,      /* K = 14 */
(PID.TID 0000.0001)                -4.855000000000000E+03       /* K = 15 */
(PID.TID 0000.0001)     ;
(PID.TID 0000.0001) rF =   /* W-Interf. R coordinate (  units of r ) */
(PID.TID 0000.0001)                 0.000000000000000E+00,      /* K =  1 */
(PID.TID 0000.0001)                -5.000000000000000E+01,      /* K =  2 */
(PID.TID 0000.0001)                -1.200000000000000E+02,      /* K =  3 */
(PID.TID 0000.0001)                -2.200000000000000E+02,      /* K =  4 */
(PID.TID 0000.0001)                -3.600000000000000E+02,      /* K =  5 */
(PID.TID 0000.0001)                -5.500000000000000E+02,      /* K =  6 */
(PID.TID 0000.0001)                -7.900000000000000E+02,      /* K =  7 */
(PID.TID 0000.0001)                -1.080000000000000E+03,      /* K =  8 */
(PID.TID 0000.0001)                -1.420000000000000E+03,      /* K =  9 */
(PID.TID 0000.0001)                -1.810000000000000E+03,      /* K = 10 */
(PID.TID 0000.0001)                -2.250000000000000E+03,      /* K = 11 */
(PID.TID 0000.0001)                -2.740000000000000E+03,      /* K = 12 */
(PID.TID 0000.0001)                -3.280000000000000E+03,      /* K = 13 */
(PID.TID 0000.0001)                -3.870000000000000E+03,      /* K = 14 */
(PID.TID 0000.0001)                -4.510000000000000E+03,      /* K = 15 */
(PID.TID 0000.0001)                -5.200000000000000E+03       /* K = 16 */
(PID.TID 0000.0001)     ;
(PID.TID 0000.0001) deepFacC = /* deep-model grid factor @ cell-Center (-) */
(PID.TID 0000.0001)    15 @  1.000000000000000E+00              /* K =  1: 15 */
(PID.TID 0000.0001)     ;
(PID.TID 0000.0001) deepFacF = /* deep-model grid factor @ W-Interface (-) */
(PID.TID 0000.0001)    16 @  1.000000000000000E+00              /* K =  1: 16 */
(PID.TID 0000.0001)     ;
(PID.TID 0000.0001) rVel2wUnit = /* convert units: rVel -> wSpeed (=1 if z-coord)*/
(PID.TID 0000.0001)    16 @  1.000000000000000E+00              /* K =  1: 16 */
(PID.TID 0000.0001)     ;
(PID.TID 0000.0001) wUnit2rVel = /* convert units: wSpeed -> rVel (=1 if z-coord)*/
(PID.TID 0000.0001)    16 @  1.000000000000000E+00              /* K =  1: 16 */
(PID.TID 0000.0001)     ;
(PID.TID 0000.0001) dBdrRef = /* Vertical grad. of reference buoyancy [(m/s/r)^2] */
(PID.TID 0000.0001)    15 @  0.000000000000000E+00              /* K =  1: 15 */
(PID.TID 0000.0001)     ;
(PID.TID 0000.0001) rotateGrid = /* use rotated grid ( True/False ) */
(PID.TID 0000.0001)                   F
(PID.TID 0000.0001)     ;
(PID.TID 0000.0001) phiEuler = /* Euler angle, rotation about original z-coordinate [rad] */
(PID.TID 0000.0001)                 0.000000000000000E+00
(PID.TID 0000.0001)     ;
(PID.TID 0000.0001) thetaEuler = /* Euler angle, rotation about new x-coordinate [rad] */
(PID.TID 0000.0001)                 0.000000000000000E+00
(PID.TID 0000.0001)     ;
(PID.TID 0000.0001) psiEuler = /* Euler angle, rotation about new z-coordinate [rad] */
(PID.TID 0000.0001)                 0.000000000000000E+00
(PID.TID 0000.0001)     ;
(PID.TID 0000.0001) dxF =  /* dxF(:,1,:,1) ( units: m ) */
(PID.TID 0000.0001)                 1.202082051331828E+05,      /* I =  1 */
(PID.TID 0000.0001)                 1.563594089971120E+05,      /* I =  2 */
(PID.TID 0000.0001)                 1.835530058121492E+05,      /* I =  3 */
(PID.TID 0000.0001)                 2.045883481718707E+05,      /* I =  4 */
(PID.TID 0000.0001)                 2.218350349844185E+05,      /* I =  5 */
(PID.TID 0000.0001)                 2.364352994647058E+05,      /* I =  6 */
(PID.TID 0000.0001)                 2.490022710862746E+05,      /* I =  7 */
(PID.TID 0000.0001)                 2.598919724358304E+05,      /* I =  8 */
(PID.TID 0000.0001)                 2.693210245495156E+05,      /* I =  9 */
(PID.TID 0000.0001)                 2.774243179696503E+05,      /* I = 10 */
(PID.TID 0000.0001)                 2.842862532064524E+05,      /* I = 11 */
(PID.TID 0000.0001)                 2.899590699694043E+05,      /* I = 12 */
(PID.TID 0000.0001)                 2.944742915095688E+05,      /* I = 13 */
(PID.TID 0000.0001)                 2.978501920522794E+05,      /* I = 14 */
(PID.TID 0000.0001)                 3.000967749619962E+05,      /* I = 15 */
(PID.TID 0000.0001)     2 @  3.012190981969055E+05,             /* I = 16: 17 */
(PID.TID 0000.0001)                 3.000967749619962E+05,      /* I = 18 */
(PID.TID 0000.0001)                 2.978501920522794E+05,      /* I = 19 */
(PID.TID 0000.0001)                 2.944742915095688E+05,      /* I = 20 */
(PID.TID 0000.0001)                 2.899590699694043E+05,      /* I = 21 */
(PID.TID 0000.0001)                 2.842862532064524E+05,      /* I = 22 */
(PID.TID 0000.0001)                 2.774243179696503E+05,      /* I = 23 */
(PID.TID 0000.0001)                 2.693210245495156E+05,      /* I = 24 */
(PID.TID 0000.0001)                 2.598919724358304E+05,      /* I = 25 */
(PID.TID 0000.0001)                 2.490022710862746E+05,      /* I = 26 */
(PID.TID 0000.0001)                 2.364352994647058E+05,      /* I = 27 */
(PID.TID 0000.0001)                 2.218350349844185E+05,      /* I = 28 */
(PID.TID 0000.0001)                 2.045883481718707E+05,      /* I = 29 */
(PID.TID 0000.0001)                 1.835530058121492E+05,      /* I = 30 */
(PID.TID 0000.0001)                 1.563594089971120E+05,      /* I = 31 */
(PID.TID 0000.0001)                 1.202082051331828E+05       /* I = 32 */
(PID.TID 0000.0001)     ;
(PID.TID 0000.0001) dxF =  /* dxF(1,:,1,:) ( units: m ) */
(PID.TID 0000.0001)                 1.202082051331828E+05,      /* J =  1 */
(PID.TID 0000.0001)                 1.572908084538706E+05,      /* J =  2 */
(PID.TID 0000.0001)                 1.840412227747703E+05,      /* J =  3 */
(PID.TID 0000.0001)                 2.048868197919576E+05,      /* J =  4 */
(PID.TID 0000.0001)                 2.220405216043041E+05,      /* J =  5 */
(PID.TID 0000.0001)                 2.365892017348392E+05,      /* J =  6 */
(PID.TID 0000.0001)                 2.491250781852558E+05,      /* J =  7 */
(PID.TID 0000.0001)                 2.599949918261881E+05,      /* J =  8 */
(PID.TID 0000.0001)                 2.694110134598581E+05,      /* J =  9 */
(PID.TID 0000.0001)                 2.775055554645015E+05,      /* J = 10 */
(PID.TID 0000.0001)                 2.843615645344775E+05,      /* J = 11 */
(PID.TID 0000.0001)                 2.900303768613599E+05,      /* J = 12 */
(PID.TID 0000.0001)                 2.945429307892709E+05,      /* J = 13 */
(PID.TID 0000.0001)                 2.979171143158405E+05,      /* J = 14 */
(PID.TID 0000.0001)                 3.001626787528886E+05,      /* J = 15 */
(PID.TID 0000.0001)     2 @  3.012844832048790E+05,             /* J = 16: 17 */
(PID.TID 0000.0001)                 3.001626787528886E+05,      /* J = 18 */
(PID.TID 0000.0001)                 2.979171143158405E+05,      /* J = 19 */
(PID.TID 0000.0001)                 2.945429307892709E+05,      /* J = 20 */
(PID.TID 0000.0001)                 2.900303768613599E+05,      /* J = 21 */
(PID.TID 0000.0001)                 2.843615645344775E+05,      /* J = 22 */
(PID.TID 0000.0001)                 2.775055554645015E+05,      /* J = 23 */
(PID.TID 0000.0001)                 2.694110134598581E+05,      /* J = 24 */
(PID.TID 0000.0001)                 2.599949918261881E+05,      /* J = 25 */
(PID.TID 0000.0001)                 2.491250781852558E+05,      /* J = 26 */
(PID.TID 0000.0001)                 2.365892017348392E+05,      /* J = 27 */
(PID.TID 0000.0001)                 2.220405216043041E+05,      /* J = 28 */
(PID.TID 0000.0001)                 2.048868197919576E+05,      /* J = 29 */
(PID.TID 0000.0001)                 1.840412227747703E+05,      /* J = 30 */
(PID.TID 0000.0001)                 1.572908084538706E+05,      /* J = 31 */
(PID.TID 0000.0001)                 1.202082051331828E+05       /* J = 32 */
(PID.TID 0000.0001)     ;
(PID.TID 0000.0001) dyF =  /* dyF(:,1,:,1) ( units: m ) */
(PID.TID 0000.0001)                 1.202082051331828E+05,      /* I =  1 */
(PID.TID 0000.0001)                 1.572908084538706E+05,      /* I =  2 */
(PID.TID 0000.0001)                 1.840412227747703E+05,      /* I =  3 */
(PID.TID 0000.0001)                 2.048868197919576E+05,      /* I =  4 */
(PID.TID 0000.0001)                 2.220405216043041E+05,      /* I =  5 */
(PID.TID 0000.0001)                 2.365892017348392E+05,      /* I =  6 */
(PID.TID 0000.0001)                 2.491250781852558E+05,      /* I =  7 */
(PID.TID 0000.0001)                 2.599949918261881E+05,      /* I =  8 */
(PID.TID 0000.0001)                 2.694110134598581E+05,      /* I =  9 */
(PID.TID 0000.0001)                 2.775055554645015E+05,      /* I = 10 */
(PID.TID 0000.0001)                 2.843615645344775E+05,      /* I = 11 */
(PID.TID 0000.0001)                 2.900303768613599E+05,      /* I = 12 */
(PID.TID 0000.0001)                 2.945429307892709E+05,      /* I = 13 */
(PID.TID 0000.0001)                 2.979171143158405E+05,      /* I = 14 */
(PID.TID 0000.0001)                 3.001626787528886E+05,      /* I = 15 */
(PID.TID 0000.0001)     2 @  3.012844832048790E+05,             /* I = 16: 17 */
(PID.TID 0000.0001)                 3.001626787528886E+05,      /* I = 18 */
(PID.TID 0000.0001)                 2.979171143158405E+05,      /* I = 19 */
(PID.TID 0000.0001)                 2.945429307892709E+05,      /* I = 20 */
(PID.TID 0000.0001)                 2.900303768613599E+05,      /* I = 21 */
(PID.TID 0000.0001)                 2.843615645344775E+05,      /* I = 22 */
(PID.TID 0000.0001)                 2.775055554645015E+05,      /* I = 23 */
(PID.TID 0000.0001)                 2.694110134598581E+05,      /* I = 24 */
(PID.TID 0000.0001)                 2.599949918261881E+05,      /* I = 25 */
(PID.TID 0000.0001)                 2.491250781852558E+05,      /* I = 26 */
(PID.TID 0000.0001)                 2.365892017348392E+05,      /* I = 27 */
(PID.TID 0000.0001)                 2.220405216043041E+05,      /* I = 28 */
(PID.TID 0000.0001)                 2.048868197919576E+05,      /* I = 29 */
(PID.TID 0000.0001)                 1.840412227747703E+05,      /* I = 30 */
(PID.TID 0000.0001)                 1.572908084538706E+05,      /* I = 31 */
(PID.TID 0000.0001)                 1.202082051331828E+05       /* I = 32 */
(PID.TID 0000.0001)     ;
(PID.TID 0000.0001) dyF =  /* dyF(1,:,1,:) ( units: m ) */
(PID.TID 0000.0001)                 1.202082051331828E+05,      /* J =  1 */
(PID.TID 0000.0001)                 1.563594089971120E+05,      /* J =  2 */
(PID.TID 0000.0001)                 1.835530058121492E+05,      /* J =  3 */
(PID.TID 0000.0001)                 2.045883481718707E+05,      /* J =  4 */
(PID.TID 0000.0001)                 2.218350349844185E+05,      /* J =  5 */
(PID.TID 0000.0001)                 2.364352994647058E+05,      /* J =  6 */
(PID.TID 0000.0001)                 2.490022710862746E+05,      /* J =  7 */
(PID.TID 0000.0001)                 2.598919724358304E+05,      /* J =  8 */
(PID.TID 0000.0001)                 2.693210245495156E+05,      /* J =  9 */
(PID.TID 0000.0001)                 2.774243179696503E+05,      /* J = 10 */
(PID.TID 0000.0001)                 2.842862532064524E+05,      /* J = 11 */
(PID.TID 0000.0001)                 2.899590699694043E+05,      /* J = 12 */
(PID.TID 0000.0001)                 2.944742915095688E+05,      /* J = 13 */
(PID.TID 0000.0001)                 2.978501920522794E+05,      /* J = 14 */
(PID.TID 0000.0001)                 3.000967749619962E+05,      /* J = 15 */
(PID.TID 0000.0001)     2 @  3.012190981969055E+05,             /* J = 16: 17 */
(PID.TID 0000.0001)                 3.000967749619962E+05,      /* J = 18 */
(PID.TID 0000.0001)                 2.978501920522794E+05,      /* J = 19 */
(PID.TID 0000.0001)                 2.944742915095688E+05,      /* J = 20 */
(PID.TID 0000.0001)                 2.899590699694043E+05,      /* J = 21 */
(PID.TID 0000.0001)                 2.842862532064524E+05,      /* J = 22 */
(PID.TID 0000.0001)                 2.774243179696503E+05,      /* J = 23 */
(PID.TID 0000.0001)                 2.693210245495156E+05,      /* J = 24 */
(PID.TID 0000.0001)                 2.598919724358304E+05,      /* J = 25 */
(PID.TID 0000.0001)                 2.490022710862746E+05,      /* J = 26 */
(PID.TID 0000.0001)                 2.364352994647058E+05,      /* J = 27 */
(PID.TID 0000.0001)                 2.218350349844185E+05,      /* J = 28 */
(PID.TID 0000.0001)                 2.045883481718707E+05,      /* J = 29 */
(PID.TID 0000.0001)                 1.835530058121492E+05,      /* J = 30 */
(PID.TID 0000.0001)                 1.563594089971120E+05,      /* J = 31 */
(PID.TID 0000.0001)                 1.202082051331828E+05       /* J = 32 */
(PID.TID 0000.0001)     ;
(PID.TID 0000.0001) dxG =  /* dxG(:,1,:,1) ( units: m ) */
(PID.TID 0000.0001)                 1.009837800879055E+05,      /* I =  1 */
(PID.TID 0000.0001)                 1.534505834330338E+05,      /* I =  2 */
(PID.TID 0000.0001)                 1.823321598773926E+05,      /* I =  3 */
(PID.TID 0000.0001)                 2.038999045536999E+05,      /* I =  4 */
(PID.TID 0000.0001)                 2.213884732245467E+05,      /* I =  5 */
(PID.TID 0000.0001)                 2.361211699596122E+05,      /* I =  6 */
(PID.TID 0000.0001)                 2.487693460283865E+05,      /* I =  7 */
(PID.TID 0000.0001)                 2.597126963772147E+05,      /* I =  8 */
(PID.TID 0000.0001)                 2.691790288994575E+05,      /* I =  9 */
(PID.TID 0000.0001)                 2.773091043277394E+05,      /* I = 10 */
(PID.TID 0000.0001)                 2.841906470085516E+05,      /* I = 11 */
(PID.TID 0000.0001)                 2.898778860929753E+05,      /* I = 12 */
(PID.TID 0000.0001)                 2.944035815526416E+05,      /* I = 13 */
(PID.TID 0000.0001)                 2.977867909042096E+05,      /* I = 14 */
(PID.TID 0000.0001)                 3.000380090330854E+05,      /* I = 15 */
(PID.TID 0000.0001)     2 @  3.011625828699101E+05,             /* I = 16: 17 */
(PID.TID 0000.0001)                 3.000380090330854E+05,      /* I = 18 */
(PID.TID 0000.0001)                 2.977867909042096E+05,      /* I = 19 */
(PID.TID 0000.0001)                 2.944035815526416E+05,      /* I = 20 */
(PID.TID 0000.0001)                 2.898778860929753E+05,      /* I = 21 */
(PID.TID 0000.0001)                 2.841906470085516E+05,      /* I = 22 */
(PID.TID 0000.0001)                 2.773091043277394E+05,      /* I = 23 */
(PID.TID 0000.0001)                 2.691790288994575E+05,      /* I = 24 */
(PID.TID 0000.0001)                 2.597126963772147E+05,      /* I = 25 */
(PID.TID 0000.0001)                 2.487693460283865E+05,      /* I = 26 */
(PID.TID 0000.0001)                 2.361211699596122E+05,      /* I = 27 */
(PID.TID 0000.0001)                 2.213884732245467E+05,      /* I = 28 */
(PID.TID 0000.0001)                 2.038999045536999E+05,      /* I = 29 */
(PID.TID 0000.0001)                 1.823321598773926E+05,      /* I = 30 */
(PID.TID 0000.0001)                 1.534505834330338E+05,      /* I = 31 */
(PID.TID 0000.0001)                 1.009837800879055E+05       /* I = 32 */
(PID.TID 0000.0001)     ;
(PID.TID 0000.0001) dxG =  /* dxG(1,:,1,:) ( units: m ) */
(PID.TID 0000.0001)                 1.009837800879055E+05,      /* J =  1 */
(PID.TID 0000.0001)                 1.403701524205398E+05,      /* J =  2 */
(PID.TID 0000.0001)                 1.716197227386011E+05,      /* J =  3 */
(PID.TID 0000.0001)                 1.950254041626018E+05,      /* J =  4 */
(PID.TID 0000.0001)                 2.138410773065497E+05,      /* J =  5 */
(PID.TID 0000.0001)                 2.295958105911512E+05,      /* J =  6 */
(PID.TID 0000.0001)                 2.430829951739083E+05,      /* J =  7 */
(PID.TID 0000.0001)                 2.547526806712889E+05,      /* J =  8 */
(PID.TID 0000.0001)                 2.648750305193301E+05,      /* J =  9 */
(PID.TID 0000.0001)                 2.736173771018112E+05,      /* J = 10 */
(PID.TID 0000.0001)                 2.810845823202647E+05,      /* J = 11 */
(PID.TID 0000.0001)                 2.873420591008078E+05,      /* J = 12 */
(PID.TID 0000.0001)                 2.924298293668651E+05,      /* J = 13 */
(PID.TID 0000.0001)                 2.963715635865306E+05,      /* J = 14 */
(PID.TID 0000.0001)                 2.991805843171258E+05,      /* J = 15 */
(PID.TID 0000.0001)                 3.008638765647886E+05,      /* J = 16 */
(PID.TID 0000.0001)                 3.014246674484008E+05,      /* J = 17 */
(PID.TID 0000.0001)                 3.008638765647886E+05,      /* J = 18 */
(PID.TID 0000.0001)                 2.991805843171258E+05,      /* J = 19 */
(PID.TID 0000.0001)                 2.963715635865306E+05,      /* J = 20 */
(PID.TID 0000.0001)                 2.924298293668651E+05,      /* J = 21 */
(PID.TID 0000.0001)                 2.873420591008078E+05,      /* J = 22 */
(PID.TID 0000.0001)                 2.810845823202647E+05,      /* J = 23 */
(PID.TID 0000.0001)                 2.736173771018112E+05,      /* J = 24 */
(PID.TID 0000.0001)                 2.648750305193301E+05,      /* J = 25 */
(PID.TID 0000.0001)                 2.547526806712889E+05,      /* J = 26 */
(PID.TID 0000.0001)                 2.430829951739083E+05,      /* J = 27 */
(PID.TID 0000.0001)                 2.295958105911512E+05,      /* J = 28 */
(PID.TID 0000.0001)                 2.138410773065497E+05,      /* J = 29 */
(PID.TID 0000.0001)                 1.950254041626018E+05,      /* J = 30 */
(PID.TID 0000.0001)                 1.716197227386011E+05,      /* J = 31 */
(PID.TID 0000.0001)                 1.403701524205398E+05       /* J = 32 */
(PID.TID 0000.0001)     ;
(PID.TID 0000.0001) dyG =  /* dyG(:,1,:,1) ( units: m ) */
(PID.TID 0000.0001)                 1.009837800879055E+05,      /* I =  1 */
(PID.TID 0000.0001)                 1.403701524205398E+05,      /* I =  2 */
(PID.TID 0000.0001)                 1.716197227386011E+05,      /* I =  3 */
(PID.TID 0000.0001)                 1.950254041626018E+05,      /* I =  4 */
(PID.TID 0000.0001)                 2.138410773065497E+05,      /* I =  5 */
(PID.TID 0000.0001)                 2.295958105911512E+05,      /* I =  6 */
(PID.TID 0000.0001)                 2.430829951739083E+05,      /* I =  7 */
(PID.TID 0000.0001)                 2.547526806712889E+05,      /* I =  8 */
(PID.TID 0000.0001)                 2.648750305193301E+05,      /* I =  9 */
(PID.TID 0000.0001)                 2.736173771018112E+05,      /* I = 10 */
(PID.TID 0000.0001)                 2.810845823202647E+05,      /* I = 11 */
(PID.TID 0000.0001)                 2.873420591008078E+05,      /* I = 12 */
(PID.TID 0000.0001)                 2.924298293668651E+05,      /* I = 13 */
(PID.TID 0000.0001)                 2.963715635865306E+05,      /* I = 14 */
(PID.TID 0000.0001)                 2.991805843171258E+05,      /* I = 15 */
(PID.TID 0000.0001)                 3.008638765647886E+05,      /* I = 16 */
(PID.TID 0000.0001)                 3.014246674484008E+05,      /* I = 17 */
(PID.TID 0000.0001)                 3.008638765647886E+05,      /* I = 18 */
(PID.TID 0000.0001)                 2.991805843171258E+05,      /* I = 19 */
(PID.TID 0000.0001)                 2.963715635865306E+05,      /* I = 20 */
(PID.TID 0000.0001)                 2.924298293668651E+05,      /* I = 21 */
(PID.TID 0000.0001)                 2.873420591008078E+05,      /* I = 22 */
(PID.TID 0000.0001)                 2.810845823202647E+05,      /* I = 23 */
(PID.TID 0000.0001)                 2.736173771018112E+05,      /* I = 24 */
(PID.TID 0000.0001)                 2.648750305193301E+05,      /* I = 25 */
(PID.TID 0000.0001)                 2.547526806712889E+05,      /* I = 26 */
(PID.TID 0000.0001)                 2.430829951739083E+05,      /* I = 27 */
(PID.TID 0000.0001)                 2.295958105911512E+05,      /* I = 28 */
(PID.TID 0000.0001)                 2.138410773065497E+05,      /* I = 29 */
(PID.TID 0000.0001)                 1.950254041626018E+05,      /* I = 30 */
(PID.TID 0000.0001)                 1.716197227386011E+05,      /* I = 31 */
(PID.TID 0000.0001)                 1.403701524205398E+05       /* I = 32 */
(PID.TID 0000.0001)     ;
(PID.TID 0000.0001) dyG =  /* dyG(1,:,1,:) ( units: m ) */
(PID.TID 0000.0001)                 1.009837800879055E+05,      /* J =  1 */
(PID.TID 0000.0001)                 1.534505834330338E+05,      /* J =  2 */
(PID.TID 0000.0001)                 1.823321598773926E+05,      /* J =  3 */
(PID.TID 0000.0001)                 2.038999045536999E+05,      /* J =  4 */
(PID.TID 0000.0001)                 2.213884732245467E+05,      /* J =  5 */
(PID.TID 0000.0001)                 2.361211699596122E+05,      /* J =  6 */
(PID.TID 0000.0001)                 2.487693460283865E+05,      /* J =  7 */
(PID.TID 0000.0001)                 2.597126963772147E+05,      /* J =  8 */
(PID.TID 0000.0001)                 2.691790288994575E+05,      /* J =  9 */
(PID.TID 0000.0001)                 2.773091043277394E+05,      /* J = 10 */
(PID.TID 0000.0001)                 2.841906470085516E+05,      /* J = 11 */
(PID.TID 0000.0001)                 2.898778860929753E+05,      /* J = 12 */
(PID.TID 0000.0001)                 2.944035815526416E+05,      /* J = 13 */
(PID.TID 0000.0001)                 2.977867909042096E+05,      /* J = 14 */
(PID.TID 0000.0001)                 3.000380090330854E+05,      /* J = 15 */
(PID.TID 0000.0001)     2 @  3.011625828699101E+05,             /* J = 16: 17 */
(PID.TID 0000.0001)                 3.000380090330854E+05,      /* J = 18 */
(PID.TID 0000.0001)                 2.977867909042096E+05,      /* J = 19 */
(PID.TID 0000.0001)                 2.944035815526416E+05,      /* J = 20 */
(PID.TID 0000.0001)                 2.898778860929753E+05,      /* J = 21 */
(PID.TID 0000.0001)                 2.841906470085516E+05,      /* J = 22 */
(PID.TID 0000.0001)                 2.773091043277394E+05,      /* J = 23 */
(PID.TID 0000.0001)                 2.691790288994575E+05,      /* J = 24 */
(PID.TID 0000.0001)                 2.597126963772147E+05,      /* J = 25 */
(PID.TID 0000.0001)                 2.487693460283865E+05,      /* J = 26 */
(PID.TID 0000.0001)                 2.361211699596122E+05,      /* J = 27 */
(PID.TID 0000.0001)                 2.213884732245467E+05,      /* J = 28 */
(PID.TID 0000.0001)                 2.038999045536999E+05,      /* J = 29 */
(PID.TID 0000.0001)                 1.823321598773926E+05,      /* J = 30 */
(PID.TID 0000.0001)                 1.534505834330338E+05,      /* J = 31 */
(PID.TID 0000.0001)                 1.009837800879055E+05       /* J = 32 */
(PID.TID 0000.0001)     ;
(PID.TID 0000.0001) dxC =  /* dxC(:,1,:,1) ( units: m ) */
(PID.TID 0000.0001)                 1.114203141013064E+05,      /* I =  1 */
(PID.TID 0000.0001)                 1.391343389937106E+05,      /* I =  2 */
(PID.TID 0000.0001)                 1.709574999026266E+05,      /* I =  3 */
(PID.TID 0000.0001)                 1.946503699269892E+05,      /* I =  4 */
(PID.TID 0000.0001)                 2.135964483342134E+05,      /* I =  5 */
(PID.TID 0000.0001)                 2.294195678257306E+05,      /* I =  6 */
(PID.TID 0000.0001)                 2.429464709770498E+05,      /* I =  7 */
(PID.TID 0000.0001)                 2.546408290696998E+05,      /* I =  8 */
(PID.TID 0000.0001)                 2.647791839299727E+05,      /* I =  9 */
(PID.TID 0000.0001)                 2.735321911346108E+05,      /* I = 10 */
(PID.TID 0000.0001)                 2.810065951609633E+05,      /* I = 11 */
(PID.TID 0000.0001)                 2.872689479506990E+05,      /* I = 12 */
(PID.TID 0000.0001)                 2.923599955312932E+05,      /* I = 13 */
(PID.TID 0000.0001)                 2.963038832565530E+05,      /* I = 14 */
(PID.TID 0000.0001)                 2.991142470004740E+05,      /* I = 15 */
(PID.TID 0000.0001)                 3.007982711627968E+05,      /* I = 16 */
(PID.TID 0000.0001)                 3.013593857228136E+05,      /* I = 17 */
(PID.TID 0000.0001)                 3.007982711627968E+05,      /* I = 18 */
(PID.TID 0000.0001)                 2.991142470004740E+05,      /* I = 19 */
(PID.TID 0000.0001)                 2.963038832565530E+05,      /* I = 20 */
(PID.TID 0000.0001)                 2.923599955312932E+05,      /* I = 21 */
(PID.TID 0000.0001)                 2.872689479506990E+05,      /* I = 22 */
(PID.TID 0000.0001)                 2.810065951609633E+05,      /* I = 23 */
(PID.TID 0000.0001)                 2.735321911346108E+05,      /* I = 24 */
(PID.TID 0000.0001)                 2.647791839299727E+05,      /* I = 25 */
(PID.TID 0000.0001)                 2.546408290696998E+05,      /* I = 26 */
(PID.TID 0000.0001)                 2.429464709770498E+05,      /* I = 27 */
(PID.TID 0000.0001)                 2.294195678257306E+05,      /* I = 28 */
(PID.TID 0000.0001)                 2.135964483342134E+05,      /* I = 29 */
(PID.TID 0000.0001)                 1.946503699269892E+05,      /* I = 30 */
(PID.TID 0000.0001)                 1.709574999026266E+05,      /* I = 31 */
(PID.TID 0000.0001)                 1.391343389937106E+05       /* I = 32 */
(PID.TID 0000.0001)     ;
(PID.TID 0000.0001) dxC =  /* dxC(1,:,1,:) ( units: m ) */
(PID.TID 0000.0001)                 1.114203141013064E+05,      /* J =  1 */
(PID.TID 0000.0001)                 1.549545757850771E+05,      /* J =  2 */
(PID.TID 0000.0001)                 1.829777599966776E+05,      /* J =  3 */
(PID.TID 0000.0001)                 2.042717761866506E+05,      /* J =  4 */
(PID.TID 0000.0001)                 2.216367828252819E+05,      /* J =  5 */
(PID.TID 0000.0001)                 2.363029564123586E+05,      /* J =  6 */
(PID.TID 0000.0001)                 2.489113743322025E+05,      /* J =  7 */
(PID.TID 0000.0001)                 2.598293319150326E+05,      /* J =  8 */
(PID.TID 0000.0001)                 2.692787333338535E+05,      /* J =  9 */
(PID.TID 0000.0001)                 2.773972106720365E+05,      /* J = 10 */
(PID.TID 0000.0001)                 2.842706922224557E+05,      /* J = 11 */
(PID.TID 0000.0001)                 2.899523122489403E+05,      /* J = 12 */
(PID.TID 0000.0001)                 2.944741346384699E+05,      /* J = 13 */
(PID.TID 0000.0001)                 2.978547649292580E+05,      /* J = 14 */
(PID.TID 0000.0001)                 3.001044073506459E+05,      /* J = 15 */
(PID.TID 0000.0001)     2 @  3.012281885409289E+05,             /* J = 16: 17 */
(PID.TID 0000.0001)                 3.001044073506459E+05,      /* J = 18 */
(PID.TID 0000.0001)                 2.978547649292580E+05,      /* J = 19 */
(PID.TID 0000.0001)                 2.944741346384699E+05,      /* J = 20 */
(PID.TID 0000.0001)                 2.899523122489403E+05,      /* J = 21 */
(PID.TID 0000.0001)                 2.842706922224557E+05,      /* J = 22 */
(PID.TID 0000.0001)                 2.773972106720365E+05,      /* J = 23 */
(PID.TID 0000.0001)                 2.692787333338535E+05,      /* J = 24 */
(PID.TID 0000.0001)                 2.598293319150326E+05,      /* J = 25 */
(PID.TID 0000.0001)                 2.489113743322025E+05,      /* J = 26 */
(PID.TID 0000.0001)                 2.363029564123586E+05,      /* J = 27 */
(PID.TID 0000.0001)                 2.216367828252819E+05,      /* J = 28 */
(PID.TID 0000.0001)                 2.042717761866506E+05,      /* J = 29 */
(PID.TID 0000.0001)                 1.829777599966776E+05,      /* J = 30 */
(PID.TID 0000.0001)                 1.549545757850771E+05,      /* J = 31 */
(PID.TID 0000.0001)                 1.114203141013064E+05       /* J = 32 */
(PID.TID 0000.0001)     ;
(PID.TID 0000.0001) dyC =  /* dyC(:,1,:,1) ( units: m ) */
(PID.TID 0000.0001)                 1.114203141013064E+05,      /* I =  1 */
(PID.TID 0000.0001)                 1.549545757850771E+05,      /* I =  2 */
(PID.TID 0000.0001)                 1.829777599966776E+05,      /* I =  3 */
(PID.TID 0000.0001)                 2.042717761866506E+05,      /* I =  4 */
(PID.TID 0000.0001)                 2.216367828252819E+05,      /* I =  5 */
(PID.TID 0000.0001)                 2.363029564123586E+05,      /* I =  6 */
(PID.TID 0000.0001)                 2.489113743322025E+05,      /* I =  7 */
(PID.TID 0000.0001)                 2.598293319150326E+05,      /* I =  8 */
(PID.TID 0000.0001)                 2.692787333338535E+05,      /* I =  9 */
(PID.TID 0000.0001)                 2.773972106720365E+05,      /* I = 10 */
(PID.TID 0000.0001)                 2.842706922224557E+05,      /* I = 11 */
(PID.TID 0000.0001)                 2.899523122489403E+05,      /* I = 12 */
(PID.TID 0000.0001)                 2.944741346384699E+05,      /* I = 13 */
(PID.TID 0000.0001)                 2.978547649292580E+05,      /* I = 14 */
(PID.TID 0000.0001)                 3.001044073506459E+05,      /* I = 15 */
(PID.TID 0000.0001)     2 @  3.012281885409289E+05,             /* I = 16: 17 */
(PID.TID 0000.0001)                 3.001044073506459E+05,      /* I = 18 */
(PID.TID 0000.0001)                 2.978547649292580E+05,      /* I = 19 */
(PID.TID 0000.0001)                 2.944741346384699E+05,      /* I = 20 */
(PID.TID 0000.0001)                 2.899523122489403E+05,      /* I = 21 */
(PID.TID 0000.0001)                 2.842706922224557E+05,      /* I = 22 */
(PID.TID 0000.0001)                 2.773972106720365E+05,      /* I = 23 */
(PID.TID 0000.0001)                 2.692787333338535E+05,      /* I = 24 */
(PID.TID 0000.0001)                 2.598293319150326E+05,      /* I = 25 */
(PID.TID 0000.0001)                 2.489113743322025E+05,      /* I = 26 */
(PID.TID 0000.0001)                 2.363029564123586E+05,      /* I = 27 */
(PID.TID 0000.0001)                 2.216367828252819E+05,      /* I = 28 */
(PID.TID 0000.0001)                 2.042717761866506E+05,      /* I = 29 */
(PID.TID 0000.0001)                 1.829777599966776E+05,      /* I = 30 */
(PID.TID 0000.0001)                 1.549545757850771E+05,      /* I = 31 */
(PID.TID 0000.0001)                 1.114203141013064E+05       /* I = 32 */
(PID.TID 0000.0001)     ;
(PID.TID 0000.0001) dyC =  /* dyC(1,:,1,:) ( units: m ) */
(PID.TID 0000.0001)                 1.114203141013064E+05,      /* J =  1 */
(PID.TID 0000.0001)                 1.391343389937106E+05,      /* J =  2 */
(PID.TID 0000.0001)                 1.709574999026266E+05,      /* J =  3 */
(PID.TID 0000.0001)                 1.946503699269892E+05,      /* J =  4 */
(PID.TID 0000.0001)                 2.135964483342134E+05,      /* J =  5 */
(PID.TID 0000.0001)                 2.294195678257306E+05,      /* J =  6 */
(PID.TID 0000.0001)                 2.429464709770498E+05,      /* J =  7 */
(PID.TID 0000.0001)                 2.546408290696998E+05,      /* J =  8 */
(PID.TID 0000.0001)                 2.647791839299727E+05,      /* J =  9 */
(PID.TID 0000.0001)                 2.735321911346108E+05,      /* J = 10 */
(PID.TID 0000.0001)                 2.810065951609633E+05,      /* J = 11 */
(PID.TID 0000.0001)                 2.872689479506990E+05,      /* J = 12 */
(PID.TID 0000.0001)                 2.923599955312932E+05,      /* J = 13 */
(PID.TID 0000.0001)                 2.963038832565530E+05,      /* J = 14 */
(PID.TID 0000.0001)                 2.991142470004740E+05,      /* J = 15 */
(PID.TID 0000.0001)                 3.007982711627968E+05,      /* J = 16 */
(PID.TID 0000.0001)                 3.013593857228136E+05,      /* J = 17 */
(PID.TID 0000.0001)                 3.007982711627968E+05,      /* J = 18 */
(PID.TID 0000.0001)                 2.991142470004740E+05,      /* J = 19 */
(PID.TID 0000.0001)                 2.963038832565530E+05,      /* J = 20 */
(PID.TID 0000.0001)                 2.923599955312932E+05,      /* J = 21 */
(PID.TID 0000.0001)                 2.872689479506990E+05,      /* J = 22 */
(PID.TID 0000.0001)                 2.810065951609633E+05,      /* J = 23 */
(PID.TID 0000.0001)                 2.735321911346108E+05,      /* J = 24 */
(PID.TID 0000.0001)                 2.647791839299727E+05,      /* J = 25 */
(PID.TID 0000.0001)                 2.546408290696998E+05,      /* J = 26 */
(PID.TID 0000.0001)                 2.429464709770498E+05,      /* J = 27 */
(PID.TID 0000.0001)                 2.294195678257306E+05,      /* J = 28 */
(PID.TID 0000.0001)                 2.135964483342134E+05,      /* J = 29 */
(PID.TID 0000.0001)                 1.946503699269892E+05,      /* J = 30 */
(PID.TID 0000.0001)                 1.709574999026266E+05,      /* J = 31 */
(PID.TID 0000.0001)                 1.391343389937106E+05       /* J = 32 */
(PID.TID 0000.0001)     ;
(PID.TID 0000.0001) dxV =  /* dxV(:,1,:,1) ( units: m ) */
(PID.TID 0000.0001)                 8.015229982413632E+04,      /* I =  1 */
(PID.TID 0000.0001)                 1.333130744933864E+05,      /* I =  2 */
(PID.TID 0000.0001)                 1.691744868129062E+05,      /* I =  3 */
(PID.TID 0000.0001)                 1.937548202849060E+05,      /* I =  4 */
(PID.TID 0000.0001)                 2.130490056267208E+05,      /* I =  5 */
(PID.TID 0000.0001)                 2.290479919481738E+05,      /* I =  6 */
(PID.TID 0000.0001)                 2.426774358027003E+05,      /* I =  7 */
(PID.TID 0000.0001)                 2.544372984215561E+05,      /* I =  8 */
(PID.TID 0000.0001)                 2.646201463834826E+05,      /* I =  9 */
(PID.TID 0000.0001)                 2.734046499619031E+05,      /* I = 10 */
(PID.TID 0000.0001)                 2.809019351693761E+05,      /* I = 11 */
(PID.TID 0000.0001)                 2.871811105274442E+05,      /* I = 12 */
(PID.TID 0000.0001)                 2.922844849381675E+05,      /* I = 13 */
(PID.TID 0000.0001)                 2.962371870847826E+05,      /* I = 14 */
(PID.TID 0000.0001)                 2.990534755671296E+05,      /* I = 15 */
(PID.TID 0000.0001)                 3.007409169495504E+05,      /* I = 16 */
(PID.TID 0000.0001)                 3.013031486919771E+05,      /* I = 17 */
(PID.TID 0000.0001)                 3.007409169495504E+05,      /* I = 18 */
(PID.TID 0000.0001)                 2.990534755671296E+05,      /* I = 19 */
(PID.TID 0000.0001)                 2.962371870847826E+05,      /* I = 20 */
(PID.TID 0000.0001)                 2.922844849381675E+05,      /* I = 21 */
(PID.TID 0000.0001)                 2.871811105274442E+05,      /* I = 22 */
(PID.TID 0000.0001)                 2.809019351693761E+05,      /* I = 23 */
(PID.TID 0000.0001)                 2.734046499619031E+05,      /* I = 24 */
(PID.TID 0000.0001)                 2.646201463834826E+05,      /* I = 25 */
(PID.TID 0000.0001)                 2.544372984215561E+05,      /* I = 26 */
(PID.TID 0000.0001)                 2.426774358027003E+05,      /* I = 27 */
(PID.TID 0000.0001)                 2.290479919481738E+05,      /* I = 28 */
(PID.TID 0000.0001)                 2.130490056267208E+05,      /* I = 29 */
(PID.TID 0000.0001)                 1.937548202849060E+05,      /* I = 30 */
(PID.TID 0000.0001)                 1.691744868129062E+05,      /* I = 31 */
(PID.TID 0000.0001)                 1.333130744933864E+05       /* I = 32 */
(PID.TID 0000.0001)     ;
(PID.TID 0000.0001) dxV =  /* dxV(1,:,1,:) ( units: m ) */
(PID.TID 0000.0001)                 8.015229982413632E+04,      /* J =  1 */
(PID.TID 0000.0001)                 1.362652340208229E+05,      /* J =  2 */
(PID.TID 0000.0001)                 1.701080315742101E+05,      /* J =  3 */
(PID.TID 0000.0001)                 1.942331448101592E+05,      /* J =  4 */
(PID.TID 0000.0001)                 2.133486626971531E+05,      /* J =  5 */
(PID.TID 0000.0001)                 2.292584591272880E+05,      /* J =  6 */
(PID.TID 0000.0001)                 2.428369969078989E+05,      /* J =  7 */
(PID.TID 0000.0001)                 2.545652950875683E+05,      /* J =  8 */
(PID.TID 0000.0001)                 2.647274964828301E+05,      /* J =  9 */
(PID.TID 0000.0001)                 2.734980225206389E+05,      /* J = 10 */
(PID.TID 0000.0001)                 2.809856491525217E+05,      /* J = 11 */
(PID.TID 0000.0001)                 2.872580915202295E+05,      /* J = 12 */
(PID.TID 0000.0001)                 2.923567890694162E+05,      /* J = 13 */
(PID.TID 0000.0001)                 2.963063101754721E+05,      /* J = 14 */
(PID.TID 0000.0001)                 2.991205495886625E+05,      /* J = 15 */
(PID.TID 0000.0001)                 3.008068453676764E+05,      /* J = 16 */
(PID.TID 0000.0001)                 3.013686170436881E+05,      /* J = 17 */
(PID.TID 0000.0001)                 3.008068453676764E+05,      /* J = 18 */
(PID.TID 0000.0001)                 2.991205495886625E+05,      /* J = 19 */
(PID.TID 0000.0001)                 2.963063101754721E+05,      /* J = 20 */
(PID.TID 0000.0001)                 2.923567890694162E+05,      /* J = 21 */
(PID.TID 0000.0001)                 2.872580915202295E+05,      /* J = 22 */
(PID.TID 0000.0001)                 2.809856491525217E+05,      /* J = 23 */
(PID.TID 0000.0001)                 2.734980225206389E+05,      /* J = 24 */
(PID.TID 0000.0001)                 2.647274964828301E+05,      /* J = 25 */
(PID.TID 0000.0001)                 2.545652950875683E+05,      /* J = 26 */
(PID.TID 0000.0001)                 2.428369969078989E+05,      /* J = 27 */
(PID.TID 0000.0001)                 2.292584591272880E+05,      /* J = 28 */
(PID.TID 0000.0001)                 2.133486626971531E+05,      /* J = 29 */
(PID.TID 0000.0001)                 1.942331448101592E+05,      /* J = 30 */
(PID.TID 0000.0001)                 1.701080315742101E+05,      /* J = 31 */
(PID.TID 0000.0001)                 1.362652340208229E+05       /* J = 32 */
(PID.TID 0000.0001)     ;
(PID.TID 0000.0001) dyU =  /* dyU(:,1,:,1) ( units: m ) */
(PID.TID 0000.0001)                 8.015229982413632E+04,      /* I =  1 */
(PID.TID 0000.0001)                 1.362652340208229E+05,      /* I =  2 */
(PID.TID 0000.0001)                 1.701080315742101E+05,      /* I =  3 */
(PID.TID 0000.0001)                 1.942331448101592E+05,      /* I =  4 */
(PID.TID 0000.0001)                 2.133486626971531E+05,      /* I =  5 */
(PID.TID 0000.0001)                 2.292584591272880E+05,      /* I =  6 */
(PID.TID 0000.0001)                 2.428369969078989E+05,      /* I =  7 */
(PID.TID 0000.0001)                 2.545652950875683E+05,      /* I =  8 */
(PID.TID 0000.0001)                 2.647274964828301E+05,      /* I =  9 */
(PID.TID 0000.0001)                 2.734980225206389E+05,      /* I = 10 */
(PID.TID 0000.0001)                 2.809856491525217E+05,      /* I = 11 */
(PID.TID 0000.0001)                 2.872580915202295E+05,      /* I = 12 */
(PID.TID 0000.0001)                 2.923567890694162E+05,      /* I = 13 */
(PID.TID 0000.0001)                 2.963063101754721E+05,      /* I = 14 */
(PID.TID 0000.0001)                 2.991205495886625E+05,      /* I = 15 */
(PID.TID 0000.0001)                 3.008068453676764E+05,      /* I = 16 */
(PID.TID 0000.0001)                 3.013686170436881E+05,      /* I = 17 */
(PID.TID 0000.0001)                 3.008068453676764E+05,      /* I = 18 */
(PID.TID 0000.0001)                 2.991205495886625E+05,      /* I = 19 */
(PID.TID 0000.0001)                 2.963063101754721E+05,      /* I = 20 */
(PID.TID 0000.0001)                 2.923567890694162E+05,      /* I = 21 */
(PID.TID 0000.0001)                 2.872580915202295E+05,      /* I = 22 */
(PID.TID 0000.0001)                 2.809856491525217E+05,      /* I = 23 */
(PID.TID 0000.0001)                 2.734980225206389E+05,      /* I = 24 */
(PID.TID 0000.0001)                 2.647274964828301E+05,      /* I = 25 */
(PID.TID 0000.0001)                 2.545652950875683E+05,      /* I = 26 */
(PID.TID 0000.0001)                 2.428369969078989E+05,      /* I = 27 */
(PID.TID 0000.0001)                 2.292584591272880E+05,      /* I = 28 */
(PID.TID 0000.0001)                 2.133486626971531E+05,      /* I = 29 */
(PID.TID 0000.0001)                 1.942331448101592E+05,      /* I = 30 */
(PID.TID 0000.0001)                 1.701080315742101E+05,      /* I = 31 */
(PID.TID 0000.0001)                 1.362652340208229E+05       /* I = 32 */
(PID.TID 0000.0001)     ;
(PID.TID 0000.0001) dyU =  /* dyU(1,:,1,:) ( units: m ) */
(PID.TID 0000.0001)                 8.015229982413632E+04,      /* J =  1 */
(PID.TID 0000.0001)                 1.333130744933864E+05,      /* J =  2 */
(PID.TID 0000.0001)                 1.691744868129062E+05,      /* J =  3 */
(PID.TID 0000.0001)                 1.937548202849060E+05,      /* J =  4 */
(PID.TID 0000.0001)                 2.130490056267208E+05,      /* J =  5 */
(PID.TID 0000.0001)                 2.290479919481738E+05,      /* J =  6 */
(PID.TID 0000.0001)                 2.426774358027003E+05,      /* J =  7 */
(PID.TID 0000.0001)                 2.544372984215561E+05,      /* J =  8 */
(PID.TID 0000.0001)                 2.646201463834826E+05,      /* J =  9 */
(PID.TID 0000.0001)                 2.734046499619031E+05,      /* J = 10 */
(PID.TID 0000.0001)                 2.809019351693761E+05,      /* J = 11 */
(PID.TID 0000.0001)                 2.871811105274442E+05,      /* J = 12 */
(PID.TID 0000.0001)                 2.922844849381675E+05,      /* J = 13 */
(PID.TID 0000.0001)                 2.962371870847826E+05,      /* J = 14 */
(PID.TID 0000.0001)                 2.990534755671296E+05,      /* J = 15 */
(PID.TID 0000.0001)                 3.007409169495504E+05,      /* J = 16 */
(PID.TID 0000.0001)                 3.013031486919771E+05,      /* J = 17 */
(PID.TID 0000.0001)                 3.007409169495504E+05,      /* J = 18 */
(PID.TID 0000.0001)                 2.990534755671296E+05,      /* J = 19 */
(PID.TID 0000.0001)                 2.962371870847826E+05,      /* J = 20 */
(PID.TID 0000.0001)                 2.922844849381675E+05,      /* J = 21 */
(PID.TID 0000.0001)                 2.871811105274442E+05,      /* J = 22 */
(PID.TID 0000.0001)                 2.809019351693761E+05,      /* J = 23 */
(PID.TID 0000.0001)                 2.734046499619031E+05,      /* J = 24 */
(PID.TID 0000.0001)                 2.646201463834826E+05,      /* J = 25 */
(PID.TID 0000.0001)                 2.544372984215561E+05,      /* J = 26 */
(PID.TID 0000.0001)                 2.426774358027003E+05,      /* J = 27 */
(PID.TID 0000.0001)                 2.290479919481738E+05,      /* J = 28 */
(PID.TID 0000.0001)                 2.130490056267208E+05,      /* J = 29 */
(PID.TID 0000.0001)                 1.937548202849060E+05,      /* J = 30 */
(PID.TID 0000.0001)                 1.691744868129062E+05,      /* J = 31 */
(PID.TID 0000.0001)                 1.333130744933864E+05       /* J = 32 */
(PID.TID 0000.0001)     ;
(PID.TID 0000.0001) rA  =  /* rA (:,1,:,1) ( units: m^2 ) */
(PID.TID 0000.0001)                 1.401900702255611E+10,      /* I =  1 */
(PID.TID 0000.0001)                 2.459906945574446E+10,      /* I =  2 */
(PID.TID 0000.0001)                 3.378518544307869E+10,      /* I =  3 */
(PID.TID 0000.0001)                 4.192037169898667E+10,      /* I =  4 */
(PID.TID 0000.0001)                 4.925938996118163E+10,      /* I =  5 */
(PID.TID 0000.0001)                 5.594154126607553E+10,      /* I =  6 */
(PID.TID 0000.0001)                 6.203683527772523E+10,      /* I =  7 */
(PID.TID 0000.0001)                 6.757541173817516E+10,      /* I =  8 */
(PID.TID 0000.0001)                 7.256353271748119E+10,      /* I =  9 */
(PID.TID 0000.0001)                 7.699293007098555E+10,      /* I = 10 */
(PID.TID 0000.0001)                 8.084683449728902E+10,      /* I = 11 */
(PID.TID 0000.0001)                 8.410423102796223E+10,      /* I = 12 */
(PID.TID 0000.0001)                 8.674306976737517E+10,      /* I = 13 */
(PID.TID 0000.0001)                 8.874277443041928E+10,      /* I = 14 */
(PID.TID 0000.0001)                 9.008620045350865E+10,      /* I = 15 */
(PID.TID 0000.0001)                 9.076111290418457E+10,      /* I = 16 */
(PID.TID 0000.0001)                 9.076111290422060E+10,      /* I = 17 */
(PID.TID 0000.0001)                 9.008620045354469E+10,      /* I = 18 */
(PID.TID 0000.0001)                 8.874277443041928E+10,      /* I = 19 */
(PID.TID 0000.0001)                 8.674306976741121E+10,      /* I = 20 */
(PID.TID 0000.0001)                 8.410423102799828E+10,      /* I = 21 */
(PID.TID 0000.0001)                 8.084683449728902E+10,      /* I = 22 */
(PID.TID 0000.0001)                 7.699293007098555E+10,      /* I = 23 */
(PID.TID 0000.0001)                 7.256353271748119E+10,      /* I = 24 */
(PID.TID 0000.0001)                 6.757541173817516E+10,      /* I = 25 */
(PID.TID 0000.0001)                 6.203683527772523E+10,      /* I = 26 */
(PID.TID 0000.0001)                 5.594154126611156E+10,      /* I = 27 */
(PID.TID 0000.0001)                 4.925938996118163E+10,      /* I = 28 */
(PID.TID 0000.0001)                 4.192037169898667E+10,      /* I = 29 */
(PID.TID 0000.0001)                 3.378518544304265E+10,      /* I = 30 */
(PID.TID 0000.0001)                 2.459906945574446E+10,      /* I = 31 */
(PID.TID 0000.0001)                 1.401900702259215E+10       /* I = 32 */
(PID.TID 0000.0001)     ;
(PID.TID 0000.0001) rA  =  /* rA (1,:,1,:) ( units: m^2 ) */
(PID.TID 0000.0001)                 1.401900702255611E+10,      /* J =  1 */
(PID.TID 0000.0001)                 2.459906945574446E+10,      /* J =  2 */
(PID.TID 0000.0001)                 3.378518544307869E+10,      /* J =  3 */
(PID.TID 0000.0001)                 4.192037169898667E+10,      /* J =  4 */
(PID.TID 0000.0001)                 4.925938996118163E+10,      /* J =  5 */
(PID.TID 0000.0001)                 5.594154126607553E+10,      /* J =  6 */
(PID.TID 0000.0001)                 6.203683527776127E+10,      /* J =  7 */
(PID.TID 0000.0001)                 6.757541173817516E+10,      /* J =  8 */
(PID.TID 0000.0001)                 7.256353271748119E+10,      /* J =  9 */
(PID.TID 0000.0001)                 7.699293007098555E+10,      /* J = 10 */
(PID.TID 0000.0001)                 8.084683449728902E+10,      /* J = 11 */
(PID.TID 0000.0001)                 8.410423102799828E+10,      /* J = 12 */
(PID.TID 0000.0001)                 8.674306976737517E+10,      /* J = 13 */
(PID.TID 0000.0001)                 8.874277443041928E+10,      /* J = 14 */
(PID.TID 0000.0001)                 9.008620045350865E+10,      /* J = 15 */
(PID.TID 0000.0001)                 9.076111290418457E+10,      /* J = 16 */
(PID.TID 0000.0001)                 9.076111290422060E+10,      /* J = 17 */
(PID.TID 0000.0001)                 9.008620045354469E+10,      /* J = 18 */
(PID.TID 0000.0001)                 8.874277443041928E+10,      /* J = 19 */
(PID.TID 0000.0001)                 8.674306976737517E+10,      /* J = 20 */
(PID.TID 0000.0001)                 8.410423102799828E+10,      /* J = 21 */
(PID.TID 0000.0001)                 8.084683449728902E+10,      /* J = 22 */
(PID.TID 0000.0001)                 7.699293007098555E+10,      /* J = 23 */
(PID.TID 0000.0001)                 7.256353271748119E+10,      /* J = 24 */
(PID.TID 0000.0001)                 6.757541173817516E+10,      /* J = 25 */
(PID.TID 0000.0001)                 6.203683527772523E+10,      /* J = 26 */
(PID.TID 0000.0001)                 5.594154126607553E+10,      /* J = 27 */
(PID.TID 0000.0001)                 4.925938996118163E+10,      /* J = 28 */
(PID.TID 0000.0001)                 4.192037169898667E+10,      /* J = 29 */
(PID.TID 0000.0001)                 3.378518544307869E+10,      /* J = 30 */
(PID.TID 0000.0001)                 2.459906945574446E+10,      /* J = 31 */
(PID.TID 0000.0001)                 1.401900702259215E+10       /* J = 32 */
(PID.TID 0000.0001)     ;
(PID.TID 0000.0001) rAw =  /* rAw(:,1,:,1) ( units: m^2 ) */
(PID.TID 0000.0001)                 1.216690346714270E+10,      /* I =  1 */
(PID.TID 0000.0001)                 1.974052138506315E+10,      /* I =  2 */
(PID.TID 0000.0001)                 2.943712825252015E+10,      /* I =  3 */
(PID.TID 0000.0001)                 3.801790263324359E+10,      /* I =  4 */
(PID.TID 0000.0001)                 4.571243814189866E+10,      /* I =  5 */
(PID.TID 0000.0001)                 5.269930713599979E+10,      /* I =  6 */
(PID.TID 0000.0001)                 5.907428494299063E+10,      /* I =  7 */
(PID.TID 0000.0001)                 6.488320895111514E+10,      /* I =  8 */
(PID.TID 0000.0001)                 7.014205907741882E+10,      /* I =  9 */
(PID.TID 0000.0001)                 7.484854821847499E+10,      /* I = 10 */
(PID.TID 0000.0001)                 7.898934631431560E+10,      /* I = 11 */
(PID.TID 0000.0001)                 8.254500894894537E+10,      /* I = 12 */
(PID.TID 0000.0001)                 8.549360686473492E+10,      /* I = 13 */
(PID.TID 0000.0001)                 8.781353403175085E+10,      /* I = 14 */
(PID.TID 0000.0001)                 8.948571540392021E+10,      /* I = 15 */
(PID.TID 0000.0001)                 9.049530583086168E+10,      /* I = 16 */
(PID.TID 0000.0001)                 9.083293515008307E+10,      /* I = 17 */
(PID.TID 0000.0001)                 9.049530583087070E+10,      /* I = 18 */
(PID.TID 0000.0001)                 8.948571540391121E+10,      /* I = 19 */
(PID.TID 0000.0001)                 8.781353403174185E+10,      /* I = 20 */
(PID.TID 0000.0001)                 8.549360686467184E+10,      /* I = 21 */
(PID.TID 0000.0001)                 8.254500894890933E+10,      /* I = 22 */
(PID.TID 0000.0001)                 7.898934631434262E+10,      /* I = 23 */
(PID.TID 0000.0001)                 7.484854821844795E+10,      /* I = 24 */
(PID.TID 0000.0001)                 7.014205907742783E+10,      /* I = 25 */
(PID.TID 0000.0001)                 6.488320895111514E+10,      /* I = 26 */
(PID.TID 0000.0001)                 5.907428494299063E+10,      /* I = 27 */
(PID.TID 0000.0001)                 5.269930713599078E+10,      /* I = 28 */
(PID.TID 0000.0001)                 4.571243814190767E+10,      /* I = 29 */
(PID.TID 0000.0001)                 3.801790263325260E+10,      /* I = 30 */
(PID.TID 0000.0001)                 2.943712825251114E+10,      /* I = 31 */
(PID.TID 0000.0001)                 1.974052138509018E+10       /* I = 32 */
(PID.TID 0000.0001)     ;
(PID.TID 0000.0001) rAw =  /* rAw(1,:,1,:) ( units: m^2 ) */
(PID.TID 0000.0001)                 1.216690346714270E+10,      /* J =  1 */
(PID.TID 0000.0001)                 2.390126200743558E+10,      /* J =  2 */
(PID.TID 0000.0001)                 3.341968103208270E+10,      /* J =  3 */
(PID.TID 0000.0001)                 4.168532893152940E+10,      /* J =  4 */
(PID.TID 0000.0001)                 4.909074590409593E+10,      /* J =  5 */
(PID.TID 0000.0001)                 5.581203765722643E+10,      /* J =  6 */
(PID.TID 0000.0001)                 6.193257577506788E+10,      /* J =  7 */
(PID.TID 0000.0001)                 6.748840226738273E+10,      /* J =  8 */
(PID.TID 0000.0001)                 7.248875782324815E+10,      /* J =  9 */
(PID.TID 0000.0001)                 7.692702995909871E+10,      /* J = 10 */
(PID.TID 0000.0001)                 8.078743937057304E+10,      /* J = 11 */
(PID.TID 0000.0001)                 8.404959656062837E+10,      /* J = 12 */
(PID.TID 0000.0001)                 8.669186205742538E+10,      /* J = 13 */
(PID.TID 0000.0001)                 8.869393350723613E+10,      /* J = 14 */
(PID.TID 0000.0001)                 9.003884657168852E+10,      /* J = 15 */
(PID.TID 0000.0001)     2 @  9.071447638299399E+10,             /* J = 16: 17 */
(PID.TID 0000.0001)                 9.003884657168852E+10,      /* J = 18 */
(PID.TID 0000.0001)                 8.869393350723613E+10,      /* J = 19 */
(PID.TID 0000.0001)                 8.669186205742538E+10,      /* J = 20 */
(PID.TID 0000.0001)                 8.404959656062837E+10,      /* J = 21 */
(PID.TID 0000.0001)                 8.078743937057304E+10,      /* J = 22 */
(PID.TID 0000.0001)                 7.692702995909871E+10,      /* J = 23 */
(PID.TID 0000.0001)                 7.248875782324815E+10,      /* J = 24 */
(PID.TID 0000.0001)                 6.748840226738273E+10,      /* J = 25 */
(PID.TID 0000.0001)                 6.193257577506788E+10,      /* J = 26 */
(PID.TID 0000.0001)                 5.581203765722643E+10,      /* J = 27 */
(PID.TID 0000.0001)                 4.909074590409593E+10,      /* J = 28 */
(PID.TID 0000.0001)                 4.168532893152940E+10,      /* J = 29 */
(PID.TID 0000.0001)                 3.341968103208270E+10,      /* J = 30 */
(PID.TID 0000.0001)                 2.390126200743558E+10,      /* J = 31 */
(PID.TID 0000.0001)                 1.216690346714270E+10       /* J = 32 */
(PID.TID 0000.0001)     ;
(PID.TID 0000.0001) rAs =  /* rAs(:,1,:,1) ( units: m^2 ) */
(PID.TID 0000.0001)                 1.216690346714270E+10,      /* I =  1 */
(PID.TID 0000.0001)                 2.390126200743558E+10,      /* I =  2 */
(PID.TID 0000.0001)                 3.341968103208270E+10,      /* I =  3 */
(PID.TID 0000.0001)                 4.168532893152940E+10,      /* I =  4 */
(PID.TID 0000.0001)                 4.909074590409593E+10,      /* I =  5 */
(PID.TID 0000.0001)                 5.581203765722643E+10,      /* I =  6 */
(PID.TID 0000.0001)                 6.193257577506788E+10,      /* I =  7 */
(PID.TID 0000.0001)                 6.748840226738273E+10,      /* I =  8 */
(PID.TID 0000.0001)                 7.248875782324815E+10,      /* I =  9 */
(PID.TID 0000.0001)                 7.692702995909871E+10,      /* I = 10 */
(PID.TID 0000.0001)                 8.078743937057304E+10,      /* I = 11 */
(PID.TID 0000.0001)                 8.404959656062837E+10,      /* I = 12 */
(PID.TID 0000.0001)                 8.669186205742538E+10,      /* I = 13 */
(PID.TID 0000.0001)                 8.869393350723613E+10,      /* I = 14 */
(PID.TID 0000.0001)                 9.003884657168852E+10,      /* I = 15 */
(PID.TID 0000.0001)     2 @  9.071447638299399E+10,             /* I = 16: 17 */
(PID.TID 0000.0001)                 9.003884657168852E+10,      /* I = 18 */
(PID.TID 0000.0001)                 8.869393350723613E+10,      /* I = 19 */
(PID.TID 0000.0001)                 8.669186205742538E+10,      /* I = 20 */
(PID.TID 0000.0001)                 8.404959656062837E+10,      /* I = 21 */
(PID.TID 0000.0001)                 8.078743937057304E+10,      /* I = 22 */
(PID.TID 0000.0001)                 7.692702995909871E+10,      /* I = 23 */
(PID.TID 0000.0001)                 7.248875782324815E+10,      /* I = 24 */
(PID.TID 0000.0001)                 6.748840226738273E+10,      /* I = 25 */
(PID.TID 0000.0001)                 6.193257577506788E+10,      /* I = 26 */
(PID.TID 0000.0001)                 5.581203765722643E+10,      /* I = 27 */
(PID.TID 0000.0001)                 4.909074590409593E+10,      /* I = 28 */
(PID.TID 0000.0001)                 4.168532893152940E+10,      /* I = 29 */
(PID.TID 0000.0001)                 3.341968103208270E+10,      /* I = 30 */
(PID.TID 0000.0001)                 2.390126200743558E+10,      /* I = 31 */
(PID.TID 0000.0001)                 1.216690346714270E+10       /* I = 32 */
(PID.TID 0000.0001)     ;
(PID.TID 0000.0001) rAs =  /* rAs(1,:,1,:) ( units: m^2 ) */
(PID.TID 0000.0001)                 1.216690346714270E+10,      /* J =  1 */
(PID.TID 0000.0001)                 1.974052138506315E+10,      /* J =  2 */
(PID.TID 0000.0001)                 2.943712825252015E+10,      /* J =  3 */
(PID.TID 0000.0001)                 3.801790263324359E+10,      /* J =  4 */
(PID.TID 0000.0001)                 4.571243814189866E+10,      /* J =  5 */
(PID.TID 0000.0001)                 5.269930713599979E+10,      /* J =  6 */
(PID.TID 0000.0001)                 5.907428494299063E+10,      /* J =  7 */
(PID.TID 0000.0001)                 6.488320895111514E+10,      /* J =  8 */
(PID.TID 0000.0001)                 7.014205907741882E+10,      /* J =  9 */
(PID.TID 0000.0001)                 7.484854821847499E+10,      /* J = 10 */
(PID.TID 0000.0001)                 7.898934631431560E+10,      /* J = 11 */
(PID.TID 0000.0001)                 8.254500894894537E+10,      /* J = 12 */
(PID.TID 0000.0001)                 8.549360686473492E+10,      /* J = 13 */
(PID.TID 0000.0001)                 8.781353403175085E+10,      /* J = 14 */
(PID.TID 0000.0001)                 8.948571540392021E+10,      /* J = 15 */
(PID.TID 0000.0001)                 9.049530583086168E+10,      /* J = 16 */
(PID.TID 0000.0001)                 9.083293515008307E+10,      /* J = 17 */
(PID.TID 0000.0001)                 9.049530583087070E+10,      /* J = 18 */
(PID.TID 0000.0001)                 8.948571540391121E+10,      /* J = 19 */
(PID.TID 0000.0001)                 8.781353403174185E+10,      /* J = 20 */
(PID.TID 0000.0001)                 8.549360686467184E+10,      /* J = 21 */
(PID.TID 0000.0001)                 8.254500894890933E+10,      /* J = 22 */
(PID.TID 0000.0001)                 7.898934631434262E+10,      /* J = 23 */
(PID.TID 0000.0001)                 7.484854821844795E+10,      /* J = 24 */
(PID.TID 0000.0001)                 7.014205907742783E+10,      /* J = 25 */
(PID.TID 0000.0001)                 6.488320895111514E+10,      /* J = 26 */
(PID.TID 0000.0001)                 5.907428494299063E+10,      /* J = 27 */
(PID.TID 0000.0001)                 5.269930713599078E+10,      /* J = 28 */
(PID.TID 0000.0001)                 4.571243814190767E+10,      /* J = 29 */
(PID.TID 0000.0001)                 3.801790263325260E+10,      /* J = 30 */
(PID.TID 0000.0001)                 2.943712825251114E+10,      /* J = 31 */
(PID.TID 0000.0001)                 1.974052138509018E+10       /* J = 32 */
(PID.TID 0000.0001)     ;
(PID.TID 0000.0001) globalArea = /* Integrated horizontal Area (m^2) */
(PID.TID 0000.0001)                 3.638867375081598E+14
(PID.TID 0000.0001)     ;
(PID.TID 0000.0001) hasWetCSCorners = /* Domain contains CS corners (True/False) */
(PID.TID 0000.0001)                   T
(PID.TID 0000.0001)     ;
(PID.TID 0000.0001) // =======================================================
(PID.TID 0000.0001) // End of Model config. summary
(PID.TID 0000.0001) // =======================================================
(PID.TID 0000.0001) 
(PID.TID 0000.0001) == Packages configuration : Check & print summary ==
(PID.TID 0000.0001) 
(PID.TID 0000.0001) GMREDI_CHECK: #define GMREDI
(PID.TID 0000.0001) GM_AdvForm =     /* if FALSE => use SkewFlux Form */
(PID.TID 0000.0001)                   F
(PID.TID 0000.0001)     ;
(PID.TID 0000.0001) GM_InMomAsStress = /* if TRUE => apply as Eddy Stress */
(PID.TID 0000.0001)                   F
(PID.TID 0000.0001)     ;
(PID.TID 0000.0001) GM_AdvSeparate = /* Calc Bolus & Euler Adv. separately */
(PID.TID 0000.0001)                   F
(PID.TID 0000.0001)     ;
(PID.TID 0000.0001) GM_ExtraDiag =   /* Tensor Extra Diag (line 1&2) non 0 */
(PID.TID 0000.0001)                   F
(PID.TID 0000.0001)     ;
(PID.TID 0000.0001) GM_isopycK =    /* Background Isopyc. Diffusivity [m^2/s] */
(PID.TID 0000.0001)                 8.000000000000000E+02
(PID.TID 0000.0001)     ;
(PID.TID 0000.0001) GM_skewflx*K =  /* Background GM_SkewFlx Diffusivity [m^2/s] */
(PID.TID 0000.0001)                 8.000000000000000E+02
(PID.TID 0000.0001)     ;
(PID.TID 0000.0001) GM_advec*K =    /* Backg. GM-Advec(=Bolus) Diffusivity [m^2/s]*/
(PID.TID 0000.0001)                 0.000000000000000E+00
(PID.TID 0000.0001)     ;
(PID.TID 0000.0001) GM_Kmin_horiz = /* Minimum Horizontal Diffusivity [m^2/s] */
(PID.TID 0000.0001)                 5.000000000000000E+01
(PID.TID 0000.0001)     ;
(PID.TID 0000.0001) GM_Visbeck_alpha = /* Visbeck alpha coeff. [-] */
(PID.TID 0000.0001)                 0.000000000000000E+00
(PID.TID 0000.0001)     ;
(PID.TID 0000.0001) GM_Small_Number =  /* epsilon used in slope calc */
(PID.TID 0000.0001)                 9.999999999999999E-21
(PID.TID 0000.0001)     ;
(PID.TID 0000.0001) GM_slopeSqCutoff = /* Slope^2 cut-off value */
(PID.TID 0000.0001)                 1.000000000000000E+48
(PID.TID 0000.0001)     ;
(PID.TID 0000.0001) GM_taper_scheme =  /* Type of Tapering/Clipping scheme */
(PID.TID 0000.0001)               'gkw91                                   '
(PID.TID 0000.0001)     ;
(PID.TID 0000.0001) GM_maxSlope =  /* Maximum Slope (Tapering/Clipping) */
(PID.TID 0000.0001)                 1.000000000000000E-02
(PID.TID 0000.0001)     ;
(PID.TID 0000.0001) GM_facTrL2dz = /* Minimum Trans.Layer Thick. (factor of dz) */
(PID.TID 0000.0001)                 1.000000000000000E+00
(PID.TID 0000.0001)     ;
(PID.TID 0000.0001) GM_facTrL2ML = /* Max.Trans.Layer Thick. (factor of MxL Depth)*/
(PID.TID 0000.0001)                 5.000000000000000E+00
(PID.TID 0000.0001)     ;
(PID.TID 0000.0001) GM_maxTransLay = /* Maximum Transition Layer Thickness [m] */
(PID.TID 0000.0001)                 5.000000000000000E+02
(PID.TID 0000.0001)     ;
(PID.TID 0000.0001) GM_UseBVP = /* if TRUE => use bvp a la Ferrari et al. (2010) */
(PID.TID 0000.0001)                   F
(PID.TID 0000.0001)     ;
(PID.TID 0000.0001) GM_BVP_ModeNumber = /* Vertical mode number for BVP wave speed */
(PID.TID 0000.0001)                       1
(PID.TID 0000.0001)     ;
(PID.TID 0000.0001) GM_BVP_cMin = /* Minimum wave speed for BVP [m/s] */
(PID.TID 0000.0001)                 1.000000000000000E-01
(PID.TID 0000.0001)     ;
(PID.TID 0000.0001) GM_useSubMeso = /* if TRUE => use Sub-Meso param. (B.Fox-Kemper) */
(PID.TID 0000.0001)                   F
(PID.TID 0000.0001)     ;
(PID.TID 0000.0001) subMeso_Ceff = /* efficiency coeff. of Mixed-Layer Eddies [-] */
(PID.TID 0000.0001)                 7.000000000000001E-02
(PID.TID 0000.0001)     ;
(PID.TID 0000.0001) subMeso_invTau = /* inverse of Sub-Meso mixing time-scale [/s] */
(PID.TID 0000.0001)                 2.000000000000000E-06
(PID.TID 0000.0001)     ;
(PID.TID 0000.0001) subMeso_LfMin = /* minimum length-scale "Lf" [m] */
(PID.TID 0000.0001)                 1.000000000000000E+03
(PID.TID 0000.0001)     ;
(PID.TID 0000.0001) subMeso_Lmax = /* maximum grid-scale length [m] */
(PID.TID 0000.0001)                 1.100000000000000E+05
(PID.TID 0000.0001)     ;
(PID.TID 0000.0001) SEAICE_CHECK: #define ALLOW_SEAICE
(PID.TID 0000.0001) GAD_CHECK: #define ALLOW_GENERIC_ADVDIFF
(PID.TID 0000.0001) // =======================================================
(PID.TID 0000.0001) // Check Model config. (CONFIG_CHECK):
(PID.TID 0000.0001) // CONFIG_CHECK : Normal End
(PID.TID 0000.0001) // =======================================================
(PID.TID 0000.0001) 
(PID.TID 0000.0001) Start initial hydrostatic pressure computation
(PID.TID 0000.0001) Pressure is predetermined for buoyancyRelation OCEANIC
(PID.TID 0000.0001) 
(PID.TID 0000.0001)  write diagnostics summary to file ioUnit:     36
Iter.Nb:         0 ; Time(s):  0.0000000000000E+00
------------------------------------------------------------------------
2D/3D diagnostics: Number of lists:     5
------------------------------------------------------------------------
listId=    1 ; file name: surfDiag
 nFlds, nActive,       freq     &     phase        , nLev               
   10  |   10  |     43200.000000         0.000000 |   1
 levels:   1
 diag# | name   |   ipt  |  iMate | kLev|   count |   mate.C|           
    86 |oceQnet |      1 |      0 |   1 |       0 |
    87 |oceQsw  |      2 |      0 |   1 |       0 |
    84 |oceFWflx|      3 |      0 |   1 |       0 |
    85 |oceSflux|      4 |      0 |   1 |       0 |
    80 |oceTAUX |      5 |      6 |   1 |       0 |       0 |
    81 |oceTAUY |      6 |      5 |   1 |       0 |       0 |
    26 |THETA   |      7 |      0 |  15 |       0 |
    27 |SALT    |     22 |      0 |  15 |       0 |
    30 |UVEL    |     37 |     52 |  15 |       0 |       0 |
    31 |VVEL    |     52 |     37 |  15 |       0 |       0 |
------------------------------------------------------------------------
listId=    2 ; file name: iceDiag
 nFlds, nActive,       freq     &     phase        , nLev               
    8  |    8  |     43200.000000         0.000000 |   1
 levels:   1
 diag# | name   |   ipt  |  iMate | kLev|   count |   mate.C|           
   211 |SIarea  |     67 |      0 |   1 |       0 |
   214 |SIheff  |     68 |      0 |   1 |       0 |
   216 |SIhsnow |     69 |      0 |   1 |       0 |
    83 |sIceLoad|     70 |      0 |   1 |       0 |
   220 |SIuice  |     71 |     72 |   1 |       0 |       0 |
   221 |SIvice  |     72 |     71 |   1 |       0 |       0 |
   222 |SItaux  |     73 |     74 |   1 |       0 |       0 |
   223 |SItauy  |     74 |     73 |   1 |       0 |       0 |
------------------------------------------------------------------------
listId=    3 ; file name: iceInst
 nFlds, nActive,       freq     &     phase        , nLev               
    9  |    9  |     -3600.000000         0.000000 |   1
 levels:   1
 diag# | name   |   ipt  |  iMate | kLev|   count |   mate.C|           
   211 |SIarea  |     75 |      0 |   1 |       0 |
   214 |SIheff  |     76 |      0 |   1 |       0 |
   216 |SIhsnow |     77 |      0 |   1 |       0 |
    83 |sIceLoad|     78 |      0 |   1 |       0 |
   220 |SIuice  |     79 |     80 |   1 |       0 |       0 |
   221 |SIvice  |     80 |     79 |   1 |       0 |       0 |
   222 |SItaux  |     81 |     82 |   1 |       0 |       0 |
   223 |SItauy  |     82 |     81 |   1 |       0 |       0 |
   284 |CPLoWGHT|     83 |      0 |   1 |       0 |
------------------------------------------------------------------------
listId=    4 ; file name: iceNcat
 nFlds, nActive,       freq     &     phase        , nLev               
   11  |   11  |     -3600.000000         0.000000 |   5
 levels:   1   2   3   4   5
 diag# | name   |   ipt  |  iMate | kLev|   count |   mate.C|           
   282 |SIareaN |     84 |      0 |   5 |       0 |
   281 |SIheffN |     89 |      0 |   5 |       0 |
   283 |SIhsnowN|     94 |      0 |   5 |       0 |
   287 |SIqSnow |     99 |      0 |   5 |       0 |
   288 |SImeltPd|    104 |      0 |   5 |       0 |
   285 |SItIces |    109 |      0 |   5 |       0 |
   289 |SIiceAge|    114 |      0 |   5 |       0 |
   290 |SI_dArea|    119 |      0 |   5 |       0 |
   291 |SI_dHeff|    124 |      0 |   5 |       0 |
   292 |SI_dHsnw|    129 |      0 |   5 |       0 |
   295 |SI_dQSnw|    134 |      0 |   5 |       0 |
------------------------------------------------------------------------
listId=    5 ; file name: iceEnerg
 nFlds, nActive,       freq     &     phase        , nLev               
    2  |    2  |     -3600.000000         0.000000 |  20
 levels:   1   2   3   4   5   6   7   8   9  10  11  12  13  14  15  16  17  18  19  20
 diag# | name   |   ipt  |  iMate | kLev|   count |   mate.C|           
   286 |SIqIce  |    139 |      0 |  20 |       0 |
   294 |SI_dQIce|    159 |      0 |  20 |       0 |
------------------------------------------------------------------------
Global & Regional Statistics diagnostics: Number of lists:     1
------------------------------------------------------------------------
listId=   1 ; file name: iceStDiag
 nFlds, nActive,       freq     &     phase        |                    
   21  |   21  |      3600.000000         0.000000 |
 Regions:   0
 diag# | name   |   ipt  |  iMate |    Volume   |   mate-Vol. |         
   211 |SIarea  |      1 |      0 | 0.00000E+00 |
   214 |SIheff  |      2 |      0 | 0.00000E+00 |
   216 |SIhsnow |      3 |      0 | 0.00000E+00 |
    83 |sIceLoad|      4 |      0 | 0.00000E+00 |
   220 |SIuice  |      5 |      0 | 0.00000E+00 |
   221 |SIvice  |      6 |      0 | 0.00000E+00 |
   222 |SItaux  |      7 |      0 | 0.00000E+00 |
   223 |SItauy  |      8 |      0 | 0.00000E+00 |
   282 |SIareaN |      9 |      0 | 0.00000E+00 |
   281 |SIheffN |     14 |      0 | 0.00000E+00 |
   283 |SIhsnowN|     19 |      0 | 0.00000E+00 |
   287 |SIqSnow |     24 |      0 | 0.00000E+00 |
   286 |SIqIce  |     29 |      0 | 0.00000E+00 |
   288 |SImeltPd|     49 |      0 | 0.00000E+00 |
   285 |SItIces |     54 |      0 | 0.00000E+00 |
   289 |SIiceAge|     59 |      0 | 0.00000E+00 |
   290 |SI_dArea|     64 |      0 | 0.00000E+00 |
   291 |SI_dHeff|     69 |      0 | 0.00000E+00 |
   292 |SI_dHsnw|     74 |      0 | 0.00000E+00 |
   295 |SI_dQSnw|     79 |      0 | 0.00000E+00 |
   294 |SI_dQIce|     84 |      0 | 0.00000E+00 |
------------------------------------------------------------------------
(PID.TID 0000.0001) // =======================================================
(PID.TID 0000.0001) // Model current state
(PID.TID 0000.0001) // =======================================================
(PID.TID 0000.0001) 
(PID.TID 0000.0001) // =======================================================
(PID.TID 0000.0001) // Begin MONITOR dynamic field statistics
(PID.TID 0000.0001) // =======================================================
(PID.TID 0000.0001) %MON time_tsnumber                =                     0
(PID.TID 0000.0001) %MON time_secondsf                =   0.0000000000000E+00
(PID.TID 0000.0001) %MON dynstat_eta_max              =   0.0000000000000E+00
(PID.TID 0000.0001) %MON dynstat_eta_min              =   0.0000000000000E+00
(PID.TID 0000.0001) %MON dynstat_eta_mean             =   0.0000000000000E+00
(PID.TID 0000.0001) %MON dynstat_eta_sd               =   0.0000000000000E+00
(PID.TID 0000.0001) %MON dynstat_eta_del2             =   0.0000000000000E+00
(PID.TID 0000.0001) %MON dynstat_uvel_max             =   0.0000000000000E+00
(PID.TID 0000.0001) %MON dynstat_uvel_min             =   0.0000000000000E+00
(PID.TID 0000.0001) %MON dynstat_uvel_mean            =   0.0000000000000E+00
(PID.TID 0000.0001) %MON dynstat_uvel_sd              =   0.0000000000000E+00
(PID.TID 0000.0001) %MON dynstat_uvel_del2            =   0.0000000000000E+00
(PID.TID 0000.0001) %MON dynstat_vvel_max             =   0.0000000000000E+00
(PID.TID 0000.0001) %MON dynstat_vvel_min             =   0.0000000000000E+00
(PID.TID 0000.0001) %MON dynstat_vvel_mean            =   0.0000000000000E+00
(PID.TID 0000.0001) %MON dynstat_vvel_sd              =   0.0000000000000E+00
(PID.TID 0000.0001) %MON dynstat_vvel_del2            =   0.0000000000000E+00
(PID.TID 0000.0001) %MON dynstat_wvel_max             =   0.0000000000000E+00
(PID.TID 0000.0001) %MON dynstat_wvel_min             =   0.0000000000000E+00
(PID.TID 0000.0001) %MON dynstat_wvel_mean            =   0.0000000000000E+00
(PID.TID 0000.0001) %MON dynstat_wvel_sd              =   0.0000000000000E+00
(PID.TID 0000.0001) %MON dynstat_wvel_del2            =   0.0000000000000E+00
(PID.TID 0000.0001) %MON dynstat_theta_max            =   2.0000000000000E+01
(PID.TID 0000.0001) %MON dynstat_theta_min            =   2.0000000000000E+01
(PID.TID 0000.0001) %MON dynstat_theta_mean           =   2.0000000000000E+01
(PID.TID 0000.0001) %MON dynstat_theta_sd             =   5.3290705182007E-14
(PID.TID 0000.0001) %MON dynstat_theta_del2           =   0.0000000000000E+00
(PID.TID 0000.0001) %MON dynstat_salt_max             =   3.5000000000000E+01
(PID.TID 0000.0001) %MON dynstat_salt_min             =   3.5000000000000E+01
(PID.TID 0000.0001) %MON dynstat_salt_mean            =   3.5000000000000E+01
(PID.TID 0000.0001) %MON dynstat_salt_sd              =   1.2079226507922E-13
(PID.TID 0000.0001) %MON dynstat_salt_del2            =   0.0000000000000E+00
(PID.TID 0000.0001) %MON dynstat_sst_max              =   2.0000000000000E+01
(PID.TID 0000.0001) %MON dynstat_sst_min              =   2.0000000000000E+01
(PID.TID 0000.0001) %MON dynstat_sst_mean             =   2.0000000000000E+01
(PID.TID 0000.0001) %MON dynstat_sst_sd               =   7.1054273576010E-15
(PID.TID 0000.0001) %MON dynstat_sst_del2             =   0.0000000000000E+00
(PID.TID 0000.0001) %MON dynstat_sss_max              =   3.5000000000000E+01
(PID.TID 0000.0001) %MON dynstat_sss_min              =   3.5000000000000E+01
(PID.TID 0000.0001) %MON dynstat_sss_mean             =   3.5000000000000E+01
(PID.TID 0000.0001) %MON dynstat_sss_sd               =   2.1316282072803E-14
(PID.TID 0000.0001) %MON dynstat_sss_del2             =   0.0000000000000E+00
(PID.TID 0000.0001) %MON forcing_qnet_max             =   0.0000000000000E+00
(PID.TID 0000.0001) %MON forcing_qnet_min             =   0.0000000000000E+00
(PID.TID 0000.0001) %MON forcing_qnet_mean            =   0.0000000000000E+00
(PID.TID 0000.0001) %MON forcing_qnet_sd              =   0.0000000000000E+00
(PID.TID 0000.0001) %MON forcing_qnet_del2            =   0.0000000000000E+00
(PID.TID 0000.0001) %MON forcing_qsw_max              =   0.0000000000000E+00
(PID.TID 0000.0001) %MON forcing_qsw_min              =   0.0000000000000E+00
(PID.TID 0000.0001) %MON forcing_qsw_mean             =   0.0000000000000E+00
(PID.TID 0000.0001) %MON forcing_qsw_sd               =   0.0000000000000E+00
(PID.TID 0000.0001) %MON forcing_qsw_del2             =   0.0000000000000E+00
(PID.TID 0000.0001) %MON forcing_empmr_max            =   0.0000000000000E+00
(PID.TID 0000.0001) %MON forcing_empmr_min            =   0.0000000000000E+00
(PID.TID 0000.0001) %MON forcing_empmr_mean           =   0.0000000000000E+00
(PID.TID 0000.0001) %MON forcing_empmr_sd             =   0.0000000000000E+00
(PID.TID 0000.0001) %MON forcing_empmr_del2           =   0.0000000000000E+00
(PID.TID 0000.0001) %MON forcing_fu_max               =   0.0000000000000E+00
(PID.TID 0000.0001) %MON forcing_fu_min               =   0.0000000000000E+00
(PID.TID 0000.0001) %MON forcing_fu_mean              =   0.0000000000000E+00
(PID.TID 0000.0001) %MON forcing_fu_sd                =   0.0000000000000E+00
(PID.TID 0000.0001) %MON forcing_fu_del2              =   0.0000000000000E+00
(PID.TID 0000.0001) %MON forcing_fv_max               =   0.0000000000000E+00
(PID.TID 0000.0001) %MON forcing_fv_min               =   0.0000000000000E+00
(PID.TID 0000.0001) %MON forcing_fv_mean              =   0.0000000000000E+00
(PID.TID 0000.0001) %MON forcing_fv_sd                =   0.0000000000000E+00
(PID.TID 0000.0001) %MON forcing_fv_del2              =   0.0000000000000E+00
(PID.TID 0000.0001) %MON trAdv_CFL_u_max              =   0.0000000000000E+00
(PID.TID 0000.0001) %MON trAdv_CFL_v_max              =   0.0000000000000E+00
(PID.TID 0000.0001) %MON trAdv_CFL_w_max              =   0.0000000000000E+00
(PID.TID 0000.0001) %MON advcfl_uvel_max              =   0.0000000000000E+00
(PID.TID 0000.0001) %MON advcfl_vvel_max              =   0.0000000000000E+00
(PID.TID 0000.0001) %MON advcfl_wvel_max              =   0.0000000000000E+00
(PID.TID 0000.0001) %MON advcfl_W_hf_max              =   0.0000000000000E+00
(PID.TID 0000.0001) %MON pe_b_mean                    =   0.0000000000000E+00
(PID.TID 0000.0001) %MON ke_max                       =   0.0000000000000E+00
(PID.TID 0000.0001) %MON ke_mean                      =   0.0000000000000E+00
(PID.TID 0000.0001) %MON ke_vol                       =   1.3398024453628E+18
(PID.TID 0000.0001) %MON vort_r_min                   =   0.0000000000000E+00
(PID.TID 0000.0001) %MON vort_r_max                   =   0.0000000000000E+00
(PID.TID 0000.0001) %MON vort_a_mean                  =  -2.0549865324846E-05
(PID.TID 0000.0001) %MON vort_a_sd                    =   7.5259258474424E-05
(PID.TID 0000.0001) %MON vort_p_mean                  =  -2.4783522345033E-05
(PID.TID 0000.0001) %MON vort_p_sd                    =   1.2810783121880E-04
(PID.TID 0000.0001) %MON surfExpan_theta_mean         =   0.0000000000000E+00
(PID.TID 0000.0001) %MON surfExpan_salt_mean          =   0.0000000000000E+00
(PID.TID 0000.0001) // =======================================================
(PID.TID 0000.0001) // End MONITOR dynamic field statistics
(PID.TID 0000.0001) // =======================================================
(PID.TID 0000.0001) // =======================================================
(PID.TID 0000.0001) // Begin MONITOR SEAICE statistics
(PID.TID 0000.0001) // =======================================================
(PID.TID 0000.0001) %MON seaice_tsnumber              =                     0
(PID.TID 0000.0001) %MON seaice_time_sec              =   0.0000000000000E+00
(PID.TID 0000.0001) %MON seaice_uice_max              =   0.0000000000000E+00
(PID.TID 0000.0001) %MON seaice_uice_min              =   0.0000000000000E+00
(PID.TID 0000.0001) %MON seaice_uice_mean             =   0.0000000000000E+00
(PID.TID 0000.0001) %MON seaice_uice_sd               =   0.0000000000000E+00
(PID.TID 0000.0001) %MON seaice_uice_del2             =   0.0000000000000E+00
(PID.TID 0000.0001) %MON seaice_vice_max              =   0.0000000000000E+00
(PID.TID 0000.0001) %MON seaice_vice_min              =   0.0000000000000E+00
(PID.TID 0000.0001) %MON seaice_vice_mean             =   0.0000000000000E+00
(PID.TID 0000.0001) %MON seaice_vice_sd               =   0.0000000000000E+00
(PID.TID 0000.0001) %MON seaice_vice_del2             =   0.0000000000000E+00
(PID.TID 0000.0001) %MON seaice_area_max              =   0.0000000000000E+00
(PID.TID 0000.0001) %MON seaice_area_min              =   0.0000000000000E+00
(PID.TID 0000.0001) %MON seaice_area_mean             =   0.0000000000000E+00
(PID.TID 0000.0001) %MON seaice_area_sd               =   0.0000000000000E+00
(PID.TID 0000.0001) %MON seaice_area_del2             =   0.0000000000000E+00
(PID.TID 0000.0001) %MON seaice_heff_max              =   0.0000000000000E+00
(PID.TID 0000.0001) %MON seaice_heff_min              =   0.0000000000000E+00
(PID.TID 0000.0001) %MON seaice_heff_mean             =   0.0000000000000E+00
(PID.TID 0000.0001) %MON seaice_heff_sd               =   0.0000000000000E+00
(PID.TID 0000.0001) %MON seaice_heff_del2             =   0.0000000000000E+00
(PID.TID 0000.0001) %MON seaice_hsnow_max             =   0.0000000000000E+00
(PID.TID 0000.0001) %MON seaice_hsnow_min             =   0.0000000000000E+00
(PID.TID 0000.0001) %MON seaice_hsnow_mean            =   0.0000000000000E+00
(PID.TID 0000.0001) %MON seaice_hsnow_sd              =   0.0000000000000E+00
(PID.TID 0000.0001) %MON seaice_hsnow_del2            =   0.0000000000000E+00
(PID.TID 0000.0001) // =======================================================
(PID.TID 0000.0001) // End MONITOR SEAICE statistics
(PID.TID 0000.0001) // =======================================================
 SEAICE_LSR: Residual Initial ipass,Uice,Vice=    1  1.58601178E-02  1.19832833E-02
 SEAICE_LSR (ipass=   1) iters,dU,Resid=    10  4.33136414E-06  1.90217004E-05
 SEAICE_LSR (ipass=   1) iters,dV,Resid=    10  4.81117573E-05  7.72992521E-06
 SEAICE_LSR: Residual Initial ipass,Uice,Vice=    2  1.08253146E-02  8.22732795E-03
 SEAICE_LSR (ipass=   2) iters,dU,Resid=    10  3.35211189E-06  1.29021596E-05
 SEAICE_LSR (ipass=   2) iters,dV,Resid=    10  4.27676709E-05  9.68187574E-06
(PID.TID 0000.0001) SOLVE_FOR_PRESSURE: putPmEinXvector =    F
 cg2d: Sum(rhs),rhsMax =  -5.44145980884934E+00  1.70357377991199E+02
(PID.TID 0000.0001)      cg2d_init_res =   2.13184336457286E+00
(PID.TID 0000.0001)      cg2d_iters(min,last) =      -1       9
(PID.TID 0000.0001)      cg2d_last_res =   8.11432567409312E-08
(PID.TID 0000.0001) // =======================================================
(PID.TID 0000.0001) // Begin MONITOR dynamic field statistics
(PID.TID 0000.0001) // =======================================================
(PID.TID 0000.0001) %MON time_tsnumber                =                     1
(PID.TID 0000.0001) %MON time_secondsf                =   9.0000000000000E+02
(PID.TID 0000.0001) %MON dynstat_eta_max              =   8.4375157939127E+00
(PID.TID 0000.0001) %MON dynstat_eta_min              =  -1.0646406135999E+00
(PID.TID 0000.0001) %MON dynstat_eta_mean             =   1.0771533740011E-02
(PID.TID 0000.0001) %MON dynstat_eta_sd               =   2.6955060474027E-01
(PID.TID 0000.0001) %MON dynstat_eta_del2             =   9.1318639350163E-03
(PID.TID 0000.0001) %MON dynstat_uvel_max             =   2.7208351568640E-01
(PID.TID 0000.0001) %MON dynstat_uvel_min             =  -2.1199860978210E-01
(PID.TID 0000.0001) %MON dynstat_uvel_mean            =   9.2187086526560E-06
(PID.TID 0000.0001) %MON dynstat_uvel_sd              =   2.1883615902061E-03
(PID.TID 0000.0001) %MON dynstat_uvel_del2            =   4.3717140082306E-05
(PID.TID 0000.0001) %MON dynstat_vvel_max             =   2.6849515843747E-01
(PID.TID 0000.0001) %MON dynstat_vvel_min             =  -2.3965888297956E-01
(PID.TID 0000.0001) %MON dynstat_vvel_mean            =  -2.9406680129136E-06
(PID.TID 0000.0001) %MON dynstat_vvel_sd              =   2.3220677694946E-03
(PID.TID 0000.0001) %MON dynstat_vvel_del2            =   4.8730092460352E-05
(PID.TID 0000.0001) %MON dynstat_wvel_max             =   1.2092710117211E-03
(PID.TID 0000.0001) %MON dynstat_wvel_min             =  -9.5244762402226E-03
(PID.TID 0000.0001) %MON dynstat_wvel_mean            =  -5.6135858520475E-07
(PID.TID 0000.0001) %MON dynstat_wvel_sd              =   5.0974242774487E-05
(PID.TID 0000.0001) %MON dynstat_wvel_del2            =   1.1077489148949E-06
(PID.TID 0000.0001) %MON dynstat_theta_max            =   2.0270681521988E+01
(PID.TID 0000.0001) %MON dynstat_theta_min            =   1.6261833255869E+01
(PID.TID 0000.0001) %MON dynstat_theta_mean           =   1.9997702311461E+01
(PID.TID 0000.0001) %MON dynstat_theta_sd             =   3.9054730188323E-02
(PID.TID 0000.0001) %MON dynstat_theta_del2           =   2.8366508980203E-04
(PID.TID 0000.0001) %MON dynstat_salt_max             =   3.5168340642845E+01
(PID.TID 0000.0001) %MON dynstat_salt_min             =   3.4681199461936E+01
(PID.TID 0000.0001) %MON dynstat_salt_mean            =   3.4999916691914E+01
(PID.TID 0000.0001) %MON dynstat_salt_sd              =   4.0971358818770E-03
(PID.TID 0000.0001) %MON dynstat_salt_del2            =   4.5500809941112E-05
(PID.TID 0000.0001) %MON dynstat_sst_max              =   2.0270681521988E+01
(PID.TID 0000.0001) %MON dynstat_sst_min              =   1.6261833255869E+01
(PID.TID 0000.0001) %MON dynstat_sst_mean             =   1.9830803299276E+01
(PID.TID 0000.0001) %MON dynstat_sst_sd               =   2.8996530225258E-01
(PID.TID 0000.0001) %MON dynstat_sst_del2             =   3.5632699356099E-03
(PID.TID 0000.0001) %MON dynstat_sss_max              =   3.5168340642845E+01
(PID.TID 0000.0001) %MON dynstat_sss_min              =   3.4681199461936E+01
(PID.TID 0000.0001) %MON dynstat_sss_mean             =   3.4993865373272E+01
(PID.TID 0000.0001) %MON dynstat_sss_sd               =   3.4626732735200E-02
(PID.TID 0000.0001) %MON dynstat_sss_del2             =   5.7156017409417E-04
(PID.TID 0000.0001) %MON forcing_qnet_max             =   9.5491375000000E+05
(PID.TID 0000.0001) %MON forcing_qnet_min             =  -6.2163777343750E+04
(PID.TID 0000.0001) %MON forcing_qnet_mean            =   3.8944147748449E+04
(PID.TID 0000.0001) %MON forcing_qnet_sd              =   6.7479164675963E+04
(PID.TID 0000.0001) %MON forcing_qnet_del2            =   8.9490021643239E+02
(PID.TID 0000.0001) %MON forcing_qsw_max              =   0.0000000000000E+00
(PID.TID 0000.0001) %MON forcing_qsw_min              =   0.0000000000000E+00
(PID.TID 0000.0001) %MON forcing_qsw_mean             =   0.0000000000000E+00
(PID.TID 0000.0001) %MON forcing_qsw_sd               =   0.0000000000000E+00
(PID.TID 0000.0001) %MON forcing_qsw_del2             =   0.0000000000000E+00
(PID.TID 0000.0001) %MON forcing_empmr_max            =   1.2515954971313E+00
(PID.TID 0000.0001) %MON forcing_empmr_min            =  -9.8578329086304E+00
(PID.TID 0000.0001) %MON forcing_empmr_mean           =  -1.2387263801013E-02
(PID.TID 0000.0001) %MON forcing_empmr_sd             =   3.2568029393379E-01
(PID.TID 0000.0001) %MON forcing_empmr_del2           =   1.1368349378374E-02
(PID.TID 0000.0001) %MON forcing_fu_max               =   5.0394416799918E-01
(PID.TID 0000.0001) %MON forcing_fu_min               =  -4.7713297787496E-01
(PID.TID 0000.0001) %MON forcing_fu_mean              =  -5.5690217709486E-03
(PID.TID 0000.0001) %MON forcing_fu_sd                =   7.3532839210981E-02
(PID.TID 0000.0001) %MON forcing_fu_del2              =   7.3910548905014E-04
(PID.TID 0000.0001) %MON forcing_fv_max               =   2.7803803014539E-01
(PID.TID 0000.0001) %MON forcing_fv_min               =  -5.2780272829866E-01
(PID.TID 0000.0001) %MON forcing_fv_mean              =  -1.4712056918441E-02
(PID.TID 0000.0001) %MON forcing_fv_sd                =   6.9084526055315E-02
(PID.TID 0000.0001) %MON forcing_fv_del2              =   6.1366562127215E-04
(PID.TID 0000.0001) %MON trAdv_CFL_u_max              =   1.3076745659389E-03
(PID.TID 0000.0001) %MON trAdv_CFL_v_max              =   1.6289390636452E-03
(PID.TID 0000.0001) %MON trAdv_CFL_w_max              =   1.5126945524055E-01
(PID.TID 0000.0001) %MON advcfl_uvel_max              =   9.0733502949248E-04
(PID.TID 0000.0001) %MON advcfl_vvel_max              =   8.7619764102611E-04
(PID.TID 0000.0001) %MON advcfl_wvel_max              =   3.4288114464801E-01
(PID.TID 0000.0001) %MON advcfl_W_hf_max              =   1.5126945524055E-01
(PID.TID 0000.0001) %MON pe_b_mean                    =   9.6947822802376E-05
(PID.TID 0000.0001) %MON ke_max                       =   4.1338925592152E-02
(PID.TID 0000.0001) %MON ke_mean                      =   4.7014327058743E-06
(PID.TID 0000.0001) %MON ke_vol                       =   1.3398024453628E+18
(PID.TID 0000.0001) %MON vort_r_min                   =  -9.2098623361185E-07
(PID.TID 0000.0001) %MON vort_r_max                   =   9.6353468427943E-07
(PID.TID 0000.0001) %MON vort_a_mean                  =  -2.0549865324846E-05
(PID.TID 0000.0001) %MON vort_a_sd                    =   7.5259260399166E-05
(PID.TID 0000.0001) %MON vort_p_mean                  =  -2.4783522345033E-05
(PID.TID 0000.0001) %MON vort_p_sd                    =   1.2810783506647E-04
(PID.TID 0000.0001) %MON surfExpan_theta_mean         =   1.1997157732767E-05
(PID.TID 0000.0001) %MON surfExpan_salt_mean          =   1.5748891022008E-06
(PID.TID 0000.0001) // =======================================================
(PID.TID 0000.0001) // End MONITOR dynamic field statistics
(PID.TID 0000.0001) // =======================================================
(PID.TID 0000.0001) // =======================================================
(PID.TID 0000.0001) // Begin MONITOR SEAICE statistics
(PID.TID 0000.0001) // =======================================================
(PID.TID 0000.0001) %MON seaice_tsnumber              =                     1
(PID.TID 0000.0001) %MON seaice_time_sec              =   9.0000000000000E+02
(PID.TID 0000.0001) %MON seaice_uice_max              =   1.6872131523736E-01
(PID.TID 0000.0001) %MON seaice_uice_min              =  -1.4596470447083E-01
(PID.TID 0000.0001) %MON seaice_uice_mean             =  -4.2887859196816E-04
(PID.TID 0000.0001) %MON seaice_uice_sd               =   1.8324049147932E-02
(PID.TID 0000.0001) %MON seaice_uice_del2             =   3.7466458834758E-04
(PID.TID 0000.0001) %MON seaice_vice_max              =   1.3121776583780E-01
(PID.TID 0000.0001) %MON seaice_vice_min              =  -1.5766783312016E-01
(PID.TID 0000.0001) %MON seaice_vice_mean             =  -1.3927848826152E-03
(PID.TID 0000.0001) %MON seaice_vice_sd               =   1.5458287180749E-02
(PID.TID 0000.0001) %MON seaice_vice_del2             =   2.9172598596019E-04
(PID.TID 0000.0001) %MON seaice_area_max              =   1.0000000000000E+00
(PID.TID 0000.0001) %MON seaice_area_min              =   0.0000000000000E+00
(PID.TID 0000.0001) %MON seaice_area_mean             =   6.8671619400810E-02
(PID.TID 0000.0001) %MON seaice_area_sd               =   2.3594435575634E-01
(PID.TID 0000.0001) %MON seaice_area_del2             =   1.8053961540149E-03
(PID.TID 0000.0001) %MON seaice_heff_max              =   8.4348930731935E+00
(PID.TID 0000.0001) %MON seaice_heff_min              =   0.0000000000000E+00
(PID.TID 0000.0001) %MON seaice_heff_mean             =   2.0562761840381E-01
(PID.TID 0000.0001) %MON seaice_heff_sd               =   9.7633648323685E-01
(PID.TID 0000.0001) %MON seaice_heff_del2             =   6.2297096392194E-03
(PID.TID 0000.0001) %MON seaice_hsnow_max             =   2.0317146479193E+00
(PID.TID 0000.0001) %MON seaice_hsnow_min             =   0.0000000000000E+00
(PID.TID 0000.0001) %MON seaice_hsnow_mean            =   2.2782743360927E-02
(PID.TID 0000.0001) %MON seaice_hsnow_sd              =   1.1958172969173E-01
(PID.TID 0000.0001) %MON seaice_hsnow_del2            =   1.4663330512782E-03
(PID.TID 0000.0001) // =======================================================
(PID.TID 0000.0001) // End MONITOR SEAICE statistics
(PID.TID 0000.0001) // =======================================================
 Computing Diagnostic #    211  SIarea       Counter:       1   Parms: SM      M1      
 Computing Diagnostic #    214  SIheff       Counter:       1   Parms: SM      M1      
 Computing Diagnostic #    216  SIhsnow      Counter:       1   Parms: SM      M1      
 Computing Diagnostic #     83  sIceLoad     Counter:       1   Parms: SM      U1      
 Computing Diagnostic #    220  SIuice       Counter:       1   Parms: UU      M1      
           Vector  Mate for  SIuice       Diagnostic #    221  SIvice   exists 
 Computing Diagnostic #    221  SIvice       Counter:       1   Parms: VV      M1      
           Vector  Mate for  SIvice       Diagnostic #    220  SIuice   exists 
 Computing Diagnostic #    222  SItaux       Counter:       1   Parms: UU      U1      
           Vector  Mate for  SItaux       Diagnostic #    223  SItauy   exists 
 Computing Diagnostic #    223  SItauy       Counter:       1   Parms: VV      U1      
           Vector  Mate for  SItauy       Diagnostic #    222  SItaux   exists 
 Computing Diagnostic #    284  CPLoWGHT     Counter:       1   Parms: SM      M1      
 Computing Diagnostic #    282  SIareaN      Counter:       1   Parms: SM      MX      
 Computing Diagnostic #    281  SIheffN      Counter:       1   Parms: SM      MX      
 Computing Diagnostic #    283  SIhsnowN     Counter:       1   Parms: SM      MX      
 Computing Diagnostic #    287  SIqSnow      Counter:       1   Parms: SM      MX      
 Computing Diagnostic #    288  SImeltPd     Counter:       1   Parms: SM      MX      
 Computing Diagnostic #    285  SItIces      Counter:       1   Parms: SM      MX      
 Computing Diagnostic #    289  SIiceAge     Counter:       1   Parms: SM      MX      
 Computing Diagnostic #    290  SI_dArea     Counter:       1   Parms: SM      MX      
 Computing Diagnostic #    291  SI_dHeff     Counter:       1   Parms: SM      MX      
 Computing Diagnostic #    292  SI_dHsnw     Counter:       1   Parms: SM      MX      
 Computing Diagnostic #    295  SI_dQSnw     Counter:       1   Parms: SM      MX      
 Computing Diagnostic #    286  SIqIce       Counter:       1   Parms: SM      MX      
 Computing Diagnostic #    294  SI_dQIce     Counter:       1   Parms: SM      MX      
 SEAICE_LSR: Residual Initial ipass,Uice,Vice=    1  1.40280088E-02  1.06206092E-02
 SEAICE_LSR (ipass=   1) iters,dU,Resid=    10  4.22643443E-06  2.98654471E-05
 SEAICE_LSR (ipass=   1) iters,dV,Resid=    10  5.28035247E-05  1.90504862E-05
 SEAICE_LSR: Residual Initial ipass,Uice,Vice=    2  1.93479369E-02  8.28265617E-03
 SEAICE_LSR (ipass=   2) iters,dU,Resid=     8  1.30030780E-05  5.31906139E-05
 SEAICE_LSR (ipass=   2) iters,dV,Resid=     8  7.84141770E-05  2.92974731E-05
 cg2d: Sum(rhs),rhsMax =  -5.84380902843510E+00  1.76445883272247E+02
(PID.TID 0000.0001)      cg2d_init_res =   2.63590730691257E-01
(PID.TID 0000.0001)      cg2d_iters(min,last) =      -1       9
(PID.TID 0000.0001)      cg2d_last_res =   5.31963427154341E-08
(PID.TID 0000.0001) // =======================================================
(PID.TID 0000.0001) // Begin MONITOR dynamic field statistics
(PID.TID 0000.0001) // =======================================================
(PID.TID 0000.0001) %MON time_tsnumber                =                     2
(PID.TID 0000.0001) %MON time_secondsf                =   1.8000000000000E+03
(PID.TID 0000.0001) %MON dynstat_eta_max              =   8.6908337413882E+00
(PID.TID 0000.0001) %MON dynstat_eta_min              =  -1.0943079451809E+00
(PID.TID 0000.0001) %MON dynstat_eta_mean             =   1.1981431755241E-02
(PID.TID 0000.0001) %MON dynstat_eta_sd               =   2.6502488901466E-01
(PID.TID 0000.0001) %MON dynstat_eta_del2             =   8.6005413695645E-03
(PID.TID 0000.0001) %MON dynstat_uvel_max             =   5.5631026461146E-01
(PID.TID 0000.0001) %MON dynstat_uvel_min             =  -3.6593671790649E-01
(PID.TID 0000.0001) %MON dynstat_uvel_mean            =   2.9306246181807E-05
(PID.TID 0000.0001) %MON dynstat_uvel_sd              =   3.9953723461562E-03
(PID.TID 0000.0001) %MON dynstat_uvel_del2            =   7.8194443793699E-05
(PID.TID 0000.0001) %MON dynstat_vvel_max             =   5.2342794432132E-01
(PID.TID 0000.0001) %MON dynstat_vvel_min             =  -4.7228388452904E-01
(PID.TID 0000.0001) %MON dynstat_vvel_mean            =  -4.6653827402523E-06
(PID.TID 0000.0001) %MON dynstat_vvel_sd              =   4.2430341098511E-03
(PID.TID 0000.0001) %MON dynstat_vvel_del2            =   8.9057087529977E-05
(PID.TID 0000.0001) %MON dynstat_wvel_max             =   7.5497359469317E-05
(PID.TID 0000.0001) %MON dynstat_wvel_min             =  -6.9660733891218E-04
(PID.TID 0000.0001) %MON dynstat_wvel_mean            =  -4.0438954662111E-07
(PID.TID 0000.0001) %MON dynstat_wvel_sd              =   1.0229893686400E-05
(PID.TID 0000.0001) %MON dynstat_wvel_del2            =   1.1459743869037E-07
(PID.TID 0000.0001) %MON dynstat_theta_max            =   2.0151132658650E+01
(PID.TID 0000.0001) %MON dynstat_theta_min            =   1.6479167233933E+01
(PID.TID 0000.0001) %MON dynstat_theta_mean           =   1.9997655438581E+01
(PID.TID 0000.0001) %MON dynstat_theta_sd             =   2.3489201019798E-02
(PID.TID 0000.0001) %MON dynstat_theta_del2           =   2.7105139302359E-04
(PID.TID 0000.0001) %MON dynstat_salt_max             =   3.5071846920595E+01
(PID.TID 0000.0001) %MON dynstat_salt_min             =   3.4654694279531E+01
(PID.TID 0000.0001) %MON dynstat_salt_mean            =   3.4999909442442E+01
(PID.TID 0000.0001) %MON dynstat_salt_sd              =   2.9478178246255E-03
(PID.TID 0000.0001) %MON dynstat_salt_del2            =   5.3651012377588E-05
(PID.TID 0000.0001) %MON dynstat_sst_max              =   2.0151132658650E+01
(PID.TID 0000.0001) %MON dynstat_sst_min              =   1.6479167233933E+01
(PID.TID 0000.0001) %MON dynstat_sst_mean             =   1.9927363021809E+01
(PID.TID 0000.0001) %MON dynstat_sst_sd               =   1.5428466649528E-01
(PID.TID 0000.0001) %MON dynstat_sst_del2             =   3.1495309004065E-03
(PID.TID 0000.0001) %MON dynstat_sss_max              =   3.5071846920595E+01
(PID.TID 0000.0001) %MON dynstat_sss_min              =   3.4654694279531E+01
(PID.TID 0000.0001) %MON dynstat_sss_mean             =   3.4996510567979E+01
(PID.TID 0000.0001) %MON dynstat_sss_sd               =   2.2508946996614E-02
(PID.TID 0000.0001) %MON dynstat_sss_del2             =   6.5987611578931E-04
(PID.TID 0000.0001) %MON forcing_qnet_max             =   1.6772948437500E+05
(PID.TID 0000.0001) %MON forcing_qnet_min             =  -3.4512714843750E+04
(PID.TID 0000.0001) %MON forcing_qnet_mean            =   6.9560202070890E+02
(PID.TID 0000.0001) %MON forcing_qnet_sd              =   5.4324094721842E+03
(PID.TID 0000.0001) %MON forcing_qnet_del2            =   2.0389414187482E+02
(PID.TID 0000.0001) %MON forcing_qsw_max              =   0.0000000000000E+00
(PID.TID 0000.0001) %MON forcing_qsw_min              =   0.0000000000000E+00
(PID.TID 0000.0001) %MON forcing_qsw_mean             =   0.0000000000000E+00
(PID.TID 0000.0001) %MON forcing_qsw_sd               =   0.0000000000000E+00
(PID.TID 0000.0001) %MON forcing_qsw_del2             =   0.0000000000000E+00
(PID.TID 0000.0001) %MON forcing_empmr_max            =   7.8139767050743E-02
(PID.TID 0000.0001) %MON forcing_empmr_min            =  -6.1679571866989E-01
(PID.TID 0000.0001) %MON forcing_empmr_mean           =  -1.3913827175144E-03
(PID.TID 0000.0001) %MON forcing_empmr_sd             =   2.1553070877954E-02
(PID.TID 0000.0001) %MON forcing_empmr_del2           =   7.7045820756847E-04
(PID.TID 0000.0001) %MON forcing_fu_max               =   6.8154402521963E-01
(PID.TID 0000.0001) %MON forcing_fu_min               =  -5.2447880009073E-01
(PID.TID 0000.0001) %MON forcing_fu_mean              =  -4.7464331622089E-03
(PID.TID 0000.0001) %MON forcing_fu_sd                =   9.5377633939634E-02
(PID.TID 0000.0001) %MON forcing_fu_del2              =   8.9048631651937E-04
(PID.TID 0000.0001) %MON forcing_fv_max               =   4.2400945801085E-01
(PID.TID 0000.0001) %MON forcing_fv_min               =  -6.5062641625541E-01
(PID.TID 0000.0001) %MON forcing_fv_mean              =  -1.2472691569659E-02
(PID.TID 0000.0001) %MON forcing_fv_sd                =   8.6783829274547E-02
(PID.TID 0000.0001) %MON forcing_fv_del2              =   7.7186272342265E-04
(PID.TID 0000.0001) %MON trAdv_CFL_u_max              =   2.3875033869112E-03
(PID.TID 0000.0001) %MON trAdv_CFL_v_max              =   2.9905883129107E-03
(PID.TID 0000.0001) %MON trAdv_CFL_w_max              =   8.0124920335769E-03
(PID.TID 0000.0001) %MON advcfl_uvel_max              =   1.8551649080056E-03
(PID.TID 0000.0001) %MON advcfl_vvel_max              =   1.7081363132598E-03
(PID.TID 0000.0001) %MON advcfl_wvel_max              =   2.1453764127648E-02
(PID.TID 0000.0001) %MON advcfl_W_hf_max              =   8.0124920335769E-03
(PID.TID 0000.0001) %MON pe_b_mean                    =   9.3761218314851E-05
(PID.TID 0000.0001) %MON ke_max                       =   1.5258268063853E-01
(PID.TID 0000.0001) %MON ke_mean                      =   1.5685702590580E-05
(PID.TID 0000.0001) %MON ke_vol                       =   1.3398063649810E+18
(PID.TID 0000.0001) %MON vort_r_min                   =  -1.8149419316332E-06
(PID.TID 0000.0001) %MON vort_r_max                   =   1.8494046198109E-06
(PID.TID 0000.0001) %MON vort_a_mean                  =  -2.0549865324846E-05
(PID.TID 0000.0001) %MON vort_a_sd                    =   7.5259263911521E-05
(PID.TID 0000.0001) %MON vort_p_mean                  =  -2.4783469791786E-05
(PID.TID 0000.0001) %MON vort_p_sd                    =   1.2810647194204E-04
(PID.TID 0000.0001) %MON surfExpan_theta_mean         =   9.9300610472800E-07
(PID.TID 0000.0001) %MON surfExpan_salt_mean          =   1.5532235758162E-07
(PID.TID 0000.0001) // =======================================================
(PID.TID 0000.0001) // End MONITOR dynamic field statistics
(PID.TID 0000.0001) // =======================================================
(PID.TID 0000.0001) // =======================================================
(PID.TID 0000.0001) // Begin MONITOR SEAICE statistics
(PID.TID 0000.0001) // =======================================================
(PID.TID 0000.0001) %MON seaice_tsnumber              =                     2
(PID.TID 0000.0001) %MON seaice_time_sec              =   1.8000000000000E+03
(PID.TID 0000.0001) %MON seaice_uice_max              =   2.3681046598823E-01
(PID.TID 0000.0001) %MON seaice_uice_min              =  -2.1199860977796E-01
(PID.TID 0000.0001) %MON seaice_uice_mean             =  -5.1705599520733E-04
(PID.TID 0000.0001) %MON seaice_uice_sd               =   2.2037232274000E-02
(PID.TID 0000.0001) %MON seaice_uice_del2             =   4.9280358245491E-04
(PID.TID 0000.0001) %MON seaice_vice_max              =   2.3561252314759E-01
(PID.TID 0000.0001) %MON seaice_vice_min              =  -2.3975302778429E-01
(PID.TID 0000.0001) %MON seaice_vice_mean             =  -1.8681622100277E-03
(PID.TID 0000.0001) %MON seaice_vice_sd               =   1.7972803731012E-02
(PID.TID 0000.0001) %MON seaice_vice_del2             =   4.3322040613633E-04
(PID.TID 0000.0001) %MON seaice_area_max              =   9.9964600376032E-01
(PID.TID 0000.0001) %MON seaice_area_min              =   0.0000000000000E+00
(PID.TID 0000.0001) %MON seaice_area_mean             =   6.8582852122943E-02
(PID.TID 0000.0001) %MON seaice_area_sd               =   2.3569844469191E-01
(PID.TID 0000.0001) %MON seaice_area_del2             =   1.8000459701947E-03
(PID.TID 0000.0001) %MON seaice_heff_max              =   8.4322965145384E+00
(PID.TID 0000.0001) %MON seaice_heff_min              =   0.0000000000000E+00
(PID.TID 0000.0001) %MON seaice_heff_mean             =   2.0546186316837E-01
(PID.TID 0000.0001) %MON seaice_heff_sd               =   9.7588772279826E-01
(PID.TID 0000.0001) %MON seaice_heff_del2             =   6.2279552197625E-03
(PID.TID 0000.0001) %MON seaice_hsnow_max             =   2.0310331114278E+00
(PID.TID 0000.0001) %MON seaice_hsnow_min             =   0.0000000000000E+00
(PID.TID 0000.0001) %MON seaice_hsnow_mean            =   2.2768468264323E-02
(PID.TID 0000.0001) %MON seaice_hsnow_sd              =   1.1952772299400E-01
(PID.TID 0000.0001) %MON seaice_hsnow_del2            =   1.4656550033144E-03
(PID.TID 0000.0001) // =======================================================
(PID.TID 0000.0001) // End MONITOR SEAICE statistics
(PID.TID 0000.0001) // =======================================================
 SEAICE_LSR: Residual Initial ipass,Uice,Vice=    1  1.80574260E-02  1.89411115E-02
 SEAICE_LSR (ipass=   1) iters,dU,Resid=    10  5.37286538E-06  3.19841448E-05
 SEAICE_LSR (ipass=   1) iters,dV,Resid=    10  8.60719230E-05  3.00902609E-05
 SEAICE_LSR: Residual Initial ipass,Uice,Vice=    2  9.61211910E-03  8.71805871E-03
 SEAICE_LSR (ipass=   2) iters,dU,Resid=    10  4.36221222E-06  2.52003349E-05
 SEAICE_LSR (ipass=   2) iters,dV,Resid=    10  5.88547341E-05  1.98443155E-05
 cg2d: Sum(rhs),rhsMax =  -6.36668255680828E+00  1.69951101337612E+02
(PID.TID 0000.0001)      cg2d_init_res =   3.87140590385315E-01
(PID.TID 0000.0001)      cg2d_iters(min,last) =      -1       9
(PID.TID 0000.0001)      cg2d_last_res =   5.85274194013270E-08
(PID.TID 0000.0001) // =======================================================
(PID.TID 0000.0001) // Begin MONITOR dynamic field statistics
(PID.TID 0000.0001) // =======================================================
(PID.TID 0000.0001) %MON time_tsnumber                =                     3
(PID.TID 0000.0001) %MON time_secondsf                =   2.7000000000000E+03
(PID.TID 0000.0001) %MON dynstat_eta_max              =   8.3113324920612E+00
(PID.TID 0000.0001) %MON dynstat_eta_min              =  -1.0435759424673E+00
(PID.TID 0000.0001) %MON dynstat_eta_mean             =   1.2572983713298E-02
(PID.TID 0000.0001) %MON dynstat_eta_sd               =   2.4184661272093E-01
(PID.TID 0000.0001) %MON dynstat_eta_del2             =   7.4623545208642E-03
(PID.TID 0000.0001) %MON dynstat_uvel_max             =   8.2629189503371E-01
(PID.TID 0000.0001) %MON dynstat_uvel_min             =  -4.4412914277377E-01
(PID.TID 0000.0001) %MON dynstat_uvel_mean            =   5.6766700636194E-05
(PID.TID 0000.0001) %MON dynstat_uvel_sd              =   5.2329976668950E-03
(PID.TID 0000.0001) %MON dynstat_uvel_del2            =   1.0062188745102E-04
(PID.TID 0000.0001) %MON dynstat_vvel_max             =   7.5262898954261E-01
(PID.TID 0000.0001) %MON dynstat_vvel_min             =  -6.9286848247285E-01
(PID.TID 0000.0001) %MON dynstat_vvel_mean            =  -6.0040514165571E-06
(PID.TID 0000.0001) %MON dynstat_vvel_sd              =   5.5915418339139E-03
(PID.TID 0000.0001) %MON dynstat_vvel_del2            =   1.1995296691360E-04
(PID.TID 0000.0001) %MON dynstat_wvel_max             =   1.7911196640017E-04
(PID.TID 0000.0001) %MON dynstat_wvel_min             =  -9.0114613438544E-04
(PID.TID 0000.0001) %MON dynstat_wvel_mean            =  -5.0603027246316E-07
(PID.TID 0000.0001) %MON dynstat_wvel_sd              =   1.2510151649097E-05
(PID.TID 0000.0001) %MON dynstat_wvel_del2            =   1.2121993911810E-07
(PID.TID 0000.0001) %MON dynstat_theta_max            =   2.0159879601442E+01
(PID.TID 0000.0001) %MON dynstat_theta_min            =   1.6460046303845E+01
(PID.TID 0000.0001) %MON dynstat_theta_mean           =   1.9997629138128E+01
(PID.TID 0000.0001) %MON dynstat_theta_sd             =   2.1033536855243E-02
(PID.TID 0000.0001) %MON dynstat_theta_del2           =   2.7762127559670E-04
(PID.TID 0000.0001) %MON dynstat_salt_max             =   3.5062762709161E+01
(PID.TID 0000.0001) %MON dynstat_salt_min             =   3.4488262889964E+01
(PID.TID 0000.0001) %MON dynstat_salt_mean            =   3.4999903469522E+01
(PID.TID 0000.0001) %MON dynstat_salt_sd              =   3.2988728052227E-03
(PID.TID 0000.0001) %MON dynstat_salt_del2            =   7.2713595318576E-05
(PID.TID 0000.0001) %MON dynstat_sst_max              =   2.0159879601442E+01
(PID.TID 0000.0001) %MON dynstat_sst_min              =   1.6460046303845E+01
(PID.TID 0000.0001) %MON dynstat_sst_mean             =   1.9954009709093E+01
(PID.TID 0000.0001) %MON dynstat_sst_sd               =   1.2844625793895E-01
(PID.TID 0000.0001) %MON dynstat_sst_del2             =   3.1631368792902E-03
(PID.TID 0000.0001) %MON dynstat_sss_max              =   3.5062762709161E+01
(PID.TID 0000.0001) %MON dynstat_sss_min              =   3.4488262889964E+01
(PID.TID 0000.0001) %MON dynstat_sss_mean             =   3.4996952989217E+01
(PID.TID 0000.0001) %MON dynstat_sss_sd               =   2.5395944746762E-02
(PID.TID 0000.0001) %MON dynstat_sss_del2             =   9.0096682936723E-04
(PID.TID 0000.0001) %MON forcing_qnet_max             =   1.4581407226562E+04
(PID.TID 0000.0001) %MON forcing_qnet_min             =  -1.8562902343750E+04
(PID.TID 0000.0001) %MON forcing_qnet_mean            =   4.3854645602466E+02
(PID.TID 0000.0001) %MON forcing_qnet_sd              =   2.3473297219123E+03
(PID.TID 0000.0001) %MON forcing_qnet_del2            =   3.7468881829868E+01
(PID.TID 0000.0001) %MON forcing_qsw_max              =   0.0000000000000E+00
(PID.TID 0000.0001) %MON forcing_qsw_min              =   0.0000000000000E+00
(PID.TID 0000.0001) %MON forcing_qsw_mean             =   0.0000000000000E+00
(PID.TID 0000.0001) %MON forcing_qsw_sd               =   0.0000000000000E+00
(PID.TID 0000.0001) %MON forcing_qsw_del2             =   0.0000000000000E+00
(PID.TID 0000.0001) %MON forcing_empmr_max            =   1.0867265053093E-02
(PID.TID 0000.0001) %MON forcing_empmr_min            =  -1.5616573393345E-01
(PID.TID 0000.0001) %MON forcing_empmr_mean           =  -6.8028475176568E-04
(PID.TID 0000.0001) %MON forcing_empmr_sd             =   7.2404959068749E-03
(PID.TID 0000.0001) %MON forcing_empmr_del2           =   2.9836337407139E-04
(PID.TID 0000.0001) %MON forcing_fu_max               =   8.3324406450286E-01
(PID.TID 0000.0001) %MON forcing_fu_min               =  -5.6631511764618E-01
(PID.TID 0000.0001) %MON forcing_fu_mean              =  -3.8007404410397E-03
(PID.TID 0000.0001) %MON forcing_fu_sd                =   1.0449375809126E-01
(PID.TID 0000.0001) %MON forcing_fu_del2              =   9.6479873074280E-04
(PID.TID 0000.0001) %MON forcing_fv_max               =   4.7332709161451E-01
(PID.TID 0000.0001) %MON forcing_fv_min               =  -6.5291206252275E-01
(PID.TID 0000.0001) %MON forcing_fv_mean              =  -1.1271106903019E-02
(PID.TID 0000.0001) %MON forcing_fv_sd                =   9.2155107597023E-02
(PID.TID 0000.0001) %MON forcing_fv_del2              =   8.2468466568691E-04
(PID.TID 0000.0001) %MON trAdv_CFL_u_max              =   3.0264332131042E-03
(PID.TID 0000.0001) %MON trAdv_CFL_v_max              =   4.1867735011564E-03
(PID.TID 0000.0001) %MON trAdv_CFL_w_max              =   4.1941723303295E-03
(PID.TID 0000.0001) %MON advcfl_uvel_max              =   2.7554906406529E-03
(PID.TID 0000.0001) %MON advcfl_vvel_max              =   2.4561029295382E-03
(PID.TID 0000.0001) %MON advcfl_wvel_max              =   5.4318516150765E-03
(PID.TID 0000.0001) %MON advcfl_W_hf_max              =   4.1941723303295E-03
(PID.TID 0000.0001) %MON pe_b_mean                    =   7.8129538506129E-05
(PID.TID 0000.0001) %MON ke_max                       =   3.2607599133623E-01
(PID.TID 0000.0001) %MON ke_mean                      =   2.7086229172434E-05
(PID.TID 0000.0001) %MON ke_vol                       =   1.3398068052469E+18
(PID.TID 0000.0001) %MON vort_r_min                   =  -2.6153762993434E-06
(PID.TID 0000.0001) %MON vort_r_max                   =   2.6316181404298E-06
(PID.TID 0000.0001) %MON vort_a_mean                  =  -2.0549865324846E-05
(PID.TID 0000.0001) %MON vort_a_sd                    =   7.5259267171115E-05
(PID.TID 0000.0001) %MON vort_p_mean                  =  -2.4783461835656E-05
(PID.TID 0000.0001) %MON vort_p_sd                    =   1.2810633522284E-04
(PID.TID 0000.0001) %MON surfExpan_theta_mean         =   1.1165088949788E-06
(PID.TID 0000.0001) %MON surfExpan_salt_mean          =   1.8473824970462E-07
(PID.TID 0000.0001) // =======================================================
(PID.TID 0000.0001) // End MONITOR dynamic field statistics
(PID.TID 0000.0001) // =======================================================
(PID.TID 0000.0001) // =======================================================
(PID.TID 0000.0001) // Begin MONITOR SEAICE statistics
(PID.TID 0000.0001) // =======================================================
(PID.TID 0000.0001) %MON seaice_tsnumber              =                     3
(PID.TID 0000.0001) %MON seaice_time_sec              =   2.7000000000000E+03
(PID.TID 0000.0001) %MON seaice_uice_max              =   5.0282294281505E-01
(PID.TID 0000.0001) %MON seaice_uice_min              =  -3.6445319057146E-01
(PID.TID 0000.0001) %MON seaice_uice_mean             =  -2.4871152903775E-04
(PID.TID 0000.0001) %MON seaice_uice_sd               =   2.7494456640483E-02
(PID.TID 0000.0001) %MON seaice_uice_del2             =   7.5328133652206E-04
(PID.TID 0000.0001) %MON seaice_vice_max              =   4.6417328390798E-01
(PID.TID 0000.0001) %MON seaice_vice_min              =  -4.7539554075072E-01
(PID.TID 0000.0001) %MON seaice_vice_mean             =  -2.0508935278450E-03
(PID.TID 0000.0001) %MON seaice_vice_sd               =   2.3737311313277E-02
(PID.TID 0000.0001) %MON seaice_vice_del2             =   8.1474149798115E-04
(PID.TID 0000.0001) %MON seaice_area_max              =   9.9946883087511E-01
(PID.TID 0000.0001) %MON seaice_area_min              =   0.0000000000000E+00
(PID.TID 0000.0001) %MON seaice_area_mean             =   6.8491377020458E-02
(PID.TID 0000.0001) %MON seaice_area_sd               =   2.3544107912327E-01
(PID.TID 0000.0001) %MON seaice_area_del2             =   1.7934517085575E-03
(PID.TID 0000.0001) %MON seaice_heff_max              =   8.4297003050509E+00
(PID.TID 0000.0001) %MON seaice_heff_min              =   0.0000000000000E+00
(PID.TID 0000.0001) %MON seaice_heff_mean             =   2.0529211573334E-01
(PID.TID 0000.0001) %MON seaice_heff_sd               =   9.7542869078929E-01
(PID.TID 0000.0001) %MON seaice_heff_del2             =   6.2260652118054E-03
(PID.TID 0000.0001) %MON seaice_hsnow_max             =   2.0303091660626E+00
(PID.TID 0000.0001) %MON seaice_hsnow_min             =   0.0000000000000E+00
(PID.TID 0000.0001) %MON seaice_hsnow_mean            =   2.2752719274998E-02
(PID.TID 0000.0001) %MON seaice_hsnow_sd              =   1.1947062691258E-01
(PID.TID 0000.0001) %MON seaice_hsnow_del2            =   1.4649108396957E-03
(PID.TID 0000.0001) // =======================================================
(PID.TID 0000.0001) // End MONITOR SEAICE statistics
(PID.TID 0000.0001) // =======================================================
 SEAICE_LSR: Residual Initial ipass,Uice,Vice=    1  1.17417204E-02  1.06364714E-02
 SEAICE_LSR (ipass=   1) iters,dU,Resid=    12  1.74062908E-06  1.34073868E-05
 SEAICE_LSR (ipass=   1) iters,dV,Resid=    12  5.04210747E-05  1.43755568E-05
 SEAICE_LSR: Residual Initial ipass,Uice,Vice=    2  7.19048272E-03  4.88814158E-03
 SEAICE_LSR (ipass=   2) iters,dU,Resid=    10  3.80954199E-06  1.98496265E-05
 SEAICE_LSR (ipass=   2) iters,dV,Resid=    10  6.15628497E-05  1.62562603E-05
 cg2d: Sum(rhs),rhsMax =  -7.02633586086385E+00  1.60719062581658E+02
(PID.TID 0000.0001)      cg2d_init_res =   4.10292964708478E-01
(PID.TID 0000.0001)      cg2d_iters(min,last) =      -1       9
(PID.TID 0000.0001)      cg2d_last_res =   6.45004875882790E-08
(PID.TID 0000.0001) // =======================================================
(PID.TID 0000.0001) // Begin MONITOR dynamic field statistics
(PID.TID 0000.0001) // =======================================================
(PID.TID 0000.0001) %MON time_tsnumber                =                     4
(PID.TID 0000.0001) %MON time_secondsf                =   3.6000000000000E+03
(PID.TID 0000.0001) %MON dynstat_eta_max              =   7.7848545173514E+00
(PID.TID 0000.0001) %MON dynstat_eta_min              =  -9.7410442735574E-01
(PID.TID 0000.0001) %MON dynstat_eta_mean             =   1.3121922524811E-02
(PID.TID 0000.0001) %MON dynstat_eta_sd               =   2.1989903839503E-01
(PID.TID 0000.0001) %MON dynstat_eta_del2             =   6.4588491086751E-03
(PID.TID 0000.0001) %MON dynstat_uvel_max             =   1.0752474429487E+00
(PID.TID 0000.0001) %MON dynstat_uvel_min             =  -4.4956395705136E-01
(PID.TID 0000.0001) %MON dynstat_uvel_mean            =   8.9742511039790E-05
(PID.TID 0000.0001) %MON dynstat_uvel_sd              =   6.0097689761657E-03
(PID.TID 0000.0001) %MON dynstat_uvel_del2            =   1.1431240676089E-04
(PID.TID 0000.0001) %MON dynstat_vvel_max             =   9.5253383540296E-01
(PID.TID 0000.0001) %MON dynstat_vvel_min             =  -8.9791939876888E-01
(PID.TID 0000.0001) %MON dynstat_vvel_mean            =  -7.2621568079267E-06
(PID.TID 0000.0001) %MON dynstat_vvel_sd              =   6.4646721433164E-03
(PID.TID 0000.0001) %MON dynstat_vvel_del2            =   1.4322572553377E-04
(PID.TID 0000.0001) %MON dynstat_wvel_max             =   2.0295633615441E-04
(PID.TID 0000.0001) %MON dynstat_wvel_min             =  -9.9820702955885E-04
(PID.TID 0000.0001) %MON dynstat_wvel_mean            =  -6.0153819447341E-07
(PID.TID 0000.0001) %MON dynstat_wvel_sd              =   1.3728343632694E-05
(PID.TID 0000.0001) %MON dynstat_wvel_del2            =   1.2950575204027E-07
(PID.TID 0000.0001) %MON dynstat_theta_max            =   2.0173223129190E+01
(PID.TID 0000.0001) %MON dynstat_theta_min            =   1.6445321183216E+01
(PID.TID 0000.0001) %MON dynstat_theta_mean           =   1.9997631991074E+01
(PID.TID 0000.0001) %MON dynstat_theta_sd             =   2.0026356533912E-02
(PID.TID 0000.0001) %MON dynstat_theta_del2           =   2.8101019001587E-04
(PID.TID 0000.0001) %MON dynstat_salt_max             =   3.5062071184949E+01
(PID.TID 0000.0001) %MON dynstat_salt_min             =   3.4325862854896E+01
(PID.TID 0000.0001) %MON dynstat_salt_mean            =   3.4999897561802E+01
(PID.TID 0000.0001) %MON dynstat_salt_sd              =   3.8708897839608E-03
(PID.TID 0000.0001) %MON dynstat_salt_del2            =   9.2582606199038E-05
(PID.TID 0000.0001) %MON dynstat_sst_max              =   2.0173223129190E+01
(PID.TID 0000.0001) %MON dynstat_sst_min              =   1.6445321183216E+01
(PID.TID 0000.0001) %MON dynstat_sst_mean             =   1.9966044301181E+01
(PID.TID 0000.0001) %MON dynstat_sst_sd               =   1.2144038419520E-01
(PID.TID 0000.0001) %MON dynstat_sst_del2             =   3.1949716701837E-03
(PID.TID 0000.0001) %MON dynstat_sss_max              =   3.5062071184949E+01
(PID.TID 0000.0001) %MON dynstat_sss_min              =   3.4325862854896E+01
(PID.TID 0000.0001) %MON dynstat_sss_mean             =   3.4996896367440E+01
(PID.TID 0000.0001) %MON dynstat_sss_sd               =   3.0785544429023E-02
(PID.TID 0000.0001) %MON dynstat_sss_del2             =   1.1533214235462E-03
(PID.TID 0000.0001) %MON forcing_qnet_max             =   1.5465376562500E+05
(PID.TID 0000.0001) %MON forcing_qnet_min             =  -1.5567534179688E+04
(PID.TID 0000.0001) %MON forcing_qnet_mean            =  -5.0359726512232E+01
(PID.TID 0000.0001) %MON forcing_qnet_sd              =   3.1209716485359E+03
(PID.TID 0000.0001) %MON forcing_qnet_del2            =   1.2418459605274E+02
(PID.TID 0000.0001) %MON forcing_qsw_max              =   0.0000000000000E+00
(PID.TID 0000.0001) %MON forcing_qsw_min              =   0.0000000000000E+00
(PID.TID 0000.0001) %MON forcing_qsw_mean             =   0.0000000000000E+00
(PID.TID 0000.0001) %MON forcing_qsw_sd               =   0.0000000000000E+00
(PID.TID 0000.0001) %MON forcing_qsw_del2             =   0.0000000000000E+00
(PID.TID 0000.0001) %MON forcing_empmr_max            =   1.0755232535303E-02
(PID.TID 0000.0001) %MON forcing_empmr_min            =  -1.6412770748138E-01
(PID.TID 0000.0001) %MON forcing_empmr_mean           =  -6.3127963323991E-04
(PID.TID 0000.0001) %MON forcing_empmr_sd             =   7.1408935244476E-03
(PID.TID 0000.0001) %MON forcing_empmr_del2           =   2.9877929289752E-04
(PID.TID 0000.0001) %MON forcing_fu_max               =   8.6857578196769E-01
(PID.TID 0000.0001) %MON forcing_fu_min               =  -5.7521093738463E-01
(PID.TID 0000.0001) %MON forcing_fu_mean              =  -3.3810945872572E-03
(PID.TID 0000.0001) %MON forcing_fu_sd                =   1.0851651938086E-01
(PID.TID 0000.0001) %MON forcing_fu_del2              =   9.9360355270359E-04
(PID.TID 0000.0001) %MON forcing_fv_max               =   4.8685035428227E-01
(PID.TID 0000.0001) %MON forcing_fv_min               =  -6.1988093315231E-01
(PID.TID 0000.0001) %MON forcing_fv_mean              =  -1.0290131506141E-02
(PID.TID 0000.0001) %MON forcing_fv_sd                =   9.4150704143839E-02
(PID.TID 0000.0001) %MON forcing_fv_del2              =   8.4547318002823E-04
(PID.TID 0000.0001) %MON trAdv_CFL_u_max              =   3.3656370421101E-03
(PID.TID 0000.0001) %MON trAdv_CFL_v_max              =   5.1402556905083E-03
(PID.TID 0000.0001) %MON trAdv_CFL_w_max              =   5.2215619566510E-03
(PID.TID 0000.0001) %MON advcfl_uvel_max              =   3.5856992949329E-03
(PID.TID 0000.0001) %MON advcfl_vvel_max              =   3.1084653609201E-03
(PID.TID 0000.0001) %MON advcfl_wvel_max              =   5.7087898254395E-03
(PID.TID 0000.0001) %MON advcfl_W_hf_max              =   5.2215619566510E-03
(PID.TID 0000.0001) %MON pe_b_mean                    =   6.4647739205346E-05
(PID.TID 0000.0001) %MON ke_max                       =   5.4152274256772E-01
(PID.TID 0000.0001) %MON ke_mean                      =   3.5984125688927E-05
(PID.TID 0000.0001) %MON ke_vol                       =   1.3398070205048E+18
(PID.TID 0000.0001) %MON vort_r_min                   =  -3.2991550701554E-06
(PID.TID 0000.0001) %MON vort_r_max                   =   3.2985063966232E-06
(PID.TID 0000.0001) %MON vort_a_mean                  =  -2.0549865324846E-05
(PID.TID 0000.0001) %MON vort_a_sd                    =   7.5259269581828E-05
(PID.TID 0000.0001) %MON vort_p_mean                  =  -2.4783456289841E-05
(PID.TID 0000.0001) %MON vort_p_sd                    =   1.2810625767042E-04
(PID.TID 0000.0001) %MON surfExpan_theta_mean         =   1.3659132758392E-06
(PID.TID 0000.0001) %MON surfExpan_salt_mean          =   2.3656197979757E-07
(PID.TID 0000.0001) // =======================================================
(PID.TID 0000.0001) // End MONITOR dynamic field statistics
(PID.TID 0000.0001) // =======================================================
(PID.TID 0000.0001) // =======================================================
(PID.TID 0000.0001) // Begin MONITOR SEAICE statistics
(PID.TID 0000.0001) // =======================================================
(PID.TID 0000.0001) %MON seaice_tsnumber              =                     4
(PID.TID 0000.0001) %MON seaice_time_sec              =   3.6000000000000E+03
(PID.TID 0000.0001) %MON seaice_uice_max              =   8.0123837163564E-01
(PID.TID 0000.0001) %MON seaice_uice_min              =  -4.4187692335647E-01
(PID.TID 0000.0001) %MON seaice_uice_mean             =  -2.2124281503510E-05
(PID.TID 0000.0001) %MON seaice_uice_sd               =   3.3345584779102E-02
(PID.TID 0000.0001) %MON seaice_uice_del2             =   9.7822350604705E-04
(PID.TID 0000.0001) %MON seaice_vice_max              =   7.2769445476452E-01
(PID.TID 0000.0001) %MON seaice_vice_min              =  -6.8550806722786E-01
(PID.TID 0000.0001) %MON seaice_vice_mean             =  -2.2856412507060E-03
(PID.TID 0000.0001) %MON seaice_vice_sd               =   3.0268158885519E-02
(PID.TID 0000.0001) %MON seaice_vice_del2             =   1.1649282611187E-03
(PID.TID 0000.0001) %MON seaice_area_max              =   9.9945039975537E-01
(PID.TID 0000.0001) %MON seaice_area_min              =   0.0000000000000E+00
(PID.TID 0000.0001) %MON seaice_area_mean             =   6.8398493079269E-02
(PID.TID 0000.0001) %MON seaice_area_sd               =   2.3518203435307E-01
(PID.TID 0000.0001) %MON seaice_area_del2             =   1.7871288017674E-03
(PID.TID 0000.0001) %MON seaice_heff_max              =   8.4271038069021E+00
(PID.TID 0000.0001) %MON seaice_heff_min              =   0.0000000000000E+00
(PID.TID 0000.0001) %MON seaice_heff_mean             =   2.0512115979453E-01
(PID.TID 0000.0001) %MON seaice_heff_sd               =   9.7496854449009E-01
(PID.TID 0000.0001) %MON seaice_heff_del2             =   6.2241811755897E-03
(PID.TID 0000.0001) %MON seaice_hsnow_max             =   2.0295731831764E+00
(PID.TID 0000.0001) %MON seaice_hsnow_min             =   0.0000000000000E+00
(PID.TID 0000.0001) %MON seaice_hsnow_mean            =   2.2736286062692E-02
(PID.TID 0000.0001) %MON seaice_hsnow_sd              =   1.1941239281287E-01
(PID.TID 0000.0001) %MON seaice_hsnow_del2            =   1.4641680881304E-03
(PID.TID 0000.0001) // =======================================================
(PID.TID 0000.0001) // End MONITOR SEAICE statistics
(PID.TID 0000.0001) // =======================================================
 Compute Stats, Diag. #    211  SIarea    vol(   0 ): 1.456E+15  Parms: SM      M1      
 Compute Stats, Diag. #    214  SIheff    vol(   0 ): 1.456E+15  Parms: SM      M1      
 Compute Stats, Diag. #    216  SIhsnow   vol(   0 ): 1.456E+15  Parms: SM      M1      
 Compute Stats, Diag. #     83  sIceLoad  vol(   0 ): 1.456E+15  Parms: SM      U1      
 Compute Stats, Diag. #    220  SIuice    vol(   0 ): 1.383E+15  Parms: UU      M1      
 Compute Stats, Diag. #    221  SIvice    vol(   0 ): 1.391E+15  Parms: VV      M1      
 Compute Stats, Diag. #    222  SItaux    vol(   0 ): 1.383E+15  Parms: UU      U1      
 Compute Stats, Diag. #    223  SItauy    vol(   0 ): 1.391E+15  Parms: VV      U1      
 Compute Stats, Diag. #    282  SIareaN   vol(   0 ): 7.278E+15  Parms: SM      MX      
 Compute Stats, Diag. #    281  SIheffN   vol(   0 ): 7.278E+15  Parms: SM      MX      
 Compute Stats, Diag. #    283  SIhsnowN  vol(   0 ): 7.278E+15  Parms: SM      MX      
 Compute Stats, Diag. #    287  SIqSnow   vol(   0 ): 7.278E+15  Parms: SM      MX      
 Compute Stats, Diag. #    286  SIqIce    vol(   0 ): 2.911E+16  Parms: SM      MX      
 Compute Stats, Diag. #    288  SImeltPd  vol(   0 ): 7.278E+15  Parms: SM      MX      
 Compute Stats, Diag. #    285  SItIces   vol(   0 ): 7.278E+15  Parms: SM      MX      
 Compute Stats, Diag. #    289  SIiceAge  vol(   0 ): 7.278E+15  Parms: SM      MX      
 Compute Stats, Diag. #    290  SI_dArea  vol(   0 ): 7.278E+15  Parms: SM      MX      
 Compute Stats, Diag. #    291  SI_dHeff  vol(   0 ): 7.278E+15  Parms: SM      MX      
 Compute Stats, Diag. #    292  SI_dHsnw  vol(   0 ): 7.278E+15  Parms: SM      MX      
 Compute Stats, Diag. #    295  SI_dQSnw  vol(   0 ): 7.278E+15  Parms: SM      MX      
 Compute Stats, Diag. #    294  SI_dQIce  vol(   0 ): 2.911E+16  Parms: SM      MX      
 SEAICE_LSR: Residual Initial ipass,Uice,Vice=    1  1.01162463E-02  8.39209809E-03
 SEAICE_LSR (ipass=   1) iters,dU,Resid=    10  4.70083719E-06  2.64862589E-05
 SEAICE_LSR (ipass=   1) iters,dV,Resid=    10  9.31153286E-05  2.00062707E-05
 SEAICE_LSR: Residual Initial ipass,Uice,Vice=    2  7.03121537E-03  4.76196317E-03
 SEAICE_LSR (ipass=   2) iters,dU,Resid=    10  3.69977450E-06  1.91777136E-05
 SEAICE_LSR (ipass=   2) iters,dV,Resid=    10  3.87857605E-05  7.12672902E-06
 cg2d: Sum(rhs),rhsMax =  -7.84443959326996E+00  1.49705410172451E+02
(PID.TID 0000.0001)      cg2d_init_res =   4.04405100281443E-01
(PID.TID 0000.0001)      cg2d_iters(min,last) =      -1       9
(PID.TID 0000.0001)      cg2d_last_res =   7.59999308437212E-08
(PID.TID 0000.0001) // =======================================================
(PID.TID 0000.0001) // Begin MONITOR dynamic field statistics
(PID.TID 0000.0001) // =======================================================
(PID.TID 0000.0001) %MON time_tsnumber                =                     5
(PID.TID 0000.0001) %MON time_secondsf                =   4.5000000000000E+03
(PID.TID 0000.0001) %MON dynstat_eta_max              =   7.1567539920642E+00
(PID.TID 0000.0001) %MON dynstat_eta_min              =  -9.5335978990404E-01
(PID.TID 0000.0001) %MON dynstat_eta_mean             =   1.3645849959742E-02
(PID.TID 0000.0001) %MON dynstat_eta_sd               =   2.0190982400589E-01
(PID.TID 0000.0001) %MON dynstat_eta_del2             =   5.6750405152287E-03
(PID.TID 0000.0001) %MON dynstat_uvel_max             =   1.2992952019821E+00
(PID.TID 0000.0001) %MON dynstat_uvel_min             =  -4.7806051424642E-01
(PID.TID 0000.0001) %MON dynstat_uvel_mean            =   1.2576255381007E-04
(PID.TID 0000.0001) %MON dynstat_uvel_sd              =   6.4698850777427E-03
(PID.TID 0000.0001) %MON dynstat_uvel_del2            =   1.2211010652112E-04
(PID.TID 0000.0001) %MON dynstat_vvel_max             =   1.1215308017459E+00
(PID.TID 0000.0001) %MON dynstat_vvel_min             =  -1.0813256886567E+00
(PID.TID 0000.0001) %MON dynstat_vvel_mean            =  -8.9094395482054E-06
(PID.TID 0000.0001) %MON dynstat_vvel_sd              =   6.9831658428523E-03
(PID.TID 0000.0001) %MON dynstat_vvel_del2            =   1.6055620286203E-04
(PID.TID 0000.0001) %MON dynstat_wvel_max             =   1.8632978088732E-04
(PID.TID 0000.0001) %MON dynstat_wvel_min             =  -9.9878404385347E-04
(PID.TID 0000.0001) %MON dynstat_wvel_mean            =  -6.5093615994034E-07
(PID.TID 0000.0001) %MON dynstat_wvel_sd              =   1.3778709728713E-05
(PID.TID 0000.0001) %MON dynstat_wvel_del2            =   1.2550386728140E-07
(PID.TID 0000.0001) %MON dynstat_theta_max            =   2.0185533479683E+01
(PID.TID 0000.0001) %MON dynstat_theta_min            =   1.6428130626820E+01
(PID.TID 0000.0001) %MON dynstat_theta_mean           =   1.9997646184310E+01
(PID.TID 0000.0001) %MON dynstat_theta_sd             =   1.9459349353866E-02
(PID.TID 0000.0001) %MON dynstat_theta_del2           =   2.8342339333095E-04
(PID.TID 0000.0001) %MON dynstat_salt_max             =   3.5061986367214E+01
(PID.TID 0000.0001) %MON dynstat_salt_min             =   3.4167387324563E+01
(PID.TID 0000.0001) %MON dynstat_salt_mean            =   3.4999892072318E+01
(PID.TID 0000.0001) %MON dynstat_salt_sd              =   4.5059911034789E-03
(PID.TID 0000.0001) %MON dynstat_salt_del2            =   1.1238741008633E-04
(PID.TID 0000.0001) %MON dynstat_sst_max              =   2.0185533479683E+01
(PID.TID 0000.0001) %MON dynstat_sst_min              =   1.6428130626820E+01
(PID.TID 0000.0001) %MON dynstat_sst_mean             =   1.9973519574138E+01
(PID.TID 0000.0001) %MON dynstat_sst_sd               =   1.1919129147282E-01
(PID.TID 0000.0001) %MON dynstat_sst_del2             =   3.2207238853099E-03
(PID.TID 0000.0001) %MON dynstat_sss_max              =   3.5061986367214E+01
(PID.TID 0000.0001) %MON dynstat_sss_min              =   3.4167387324563E+01
(PID.TID 0000.0001) %MON dynstat_sss_mean             =   3.4996704368950E+01
(PID.TID 0000.0001) %MON dynstat_sss_sd               =   3.6651174115047E-02
(PID.TID 0000.0001) %MON dynstat_sss_del2             =   1.4038332693643E-03
(PID.TID 0000.0001) %MON forcing_qnet_max             =   9.8841327820737E+03
(PID.TID 0000.0001) %MON forcing_qnet_min             =  -1.4453244140625E+04
(PID.TID 0000.0001) %MON forcing_qnet_mean            =  -2.4138656382065E+02
(PID.TID 0000.0001) %MON forcing_qnet_sd              =   1.2147656625330E+03
(PID.TID 0000.0001) %MON forcing_qnet_del2            =   2.6559596603912E+01
(PID.TID 0000.0001) %MON forcing_qsw_max              =   0.0000000000000E+00
(PID.TID 0000.0001) %MON forcing_qsw_min              =  -1.0370735751695E+02
(PID.TID 0000.0001) %MON forcing_qsw_mean             =  -2.2219766912657E+01
(PID.TID 0000.0001) %MON forcing_qsw_sd               =   2.9938943230828E+01
(PID.TID 0000.0001) %MON forcing_qsw_del2             =   1.5267782221563E-01
(PID.TID 0000.0001) %MON forcing_empmr_max            =   1.0644331574440E-02
(PID.TID 0000.0001) %MON forcing_empmr_min            =  -1.5296547114849E-01
(PID.TID 0000.0001) %MON forcing_empmr_mean           =  -6.0251655017013E-04
(PID.TID 0000.0001) %MON forcing_empmr_sd             =   6.7690866870670E-03
(PID.TID 0000.0001) %MON forcing_empmr_del2           =   2.6953158626976E-04
(PID.TID 0000.0001) %MON forcing_fu_max               =   8.8949285147286E-01
(PID.TID 0000.0001) %MON forcing_fu_min               =  -5.5992139619846E-01
(PID.TID 0000.0001) %MON forcing_fu_mean              =  -3.2063276594928E-03
(PID.TID 0000.0001) %MON forcing_fu_sd                =   1.1002715936328E-01
(PID.TID 0000.0001) %MON forcing_fu_del2              =   1.0022679593067E-03
(PID.TID 0000.0001) %MON forcing_fv_max               =   4.9901250993439E-01
(PID.TID 0000.0001) %MON forcing_fv_min               =  -5.7886780787740E-01
(PID.TID 0000.0001) %MON forcing_fv_mean              =  -9.5177802418157E-03
(PID.TID 0000.0001) %MON forcing_fv_sd                =   9.4742524692917E-02
(PID.TID 0000.0001) %MON forcing_fv_del2              =   8.5303014053587E-04
(PID.TID 0000.0001) %MON trAdv_CFL_u_max              =   4.0865239284679E-03
(PID.TID 0000.0001) %MON trAdv_CFL_v_max              =   5.8761759279321E-03
(PID.TID 0000.0001) %MON trAdv_CFL_w_max              =   6.0282344569344E-03
(PID.TID 0000.0001) %MON advcfl_uvel_max              =   4.3328462859494E-03
(PID.TID 0000.0001) %MON advcfl_vvel_max              =   3.6599641071617E-03
(PID.TID 0000.0001) %MON advcfl_wvel_max              =   5.3205381269040E-03
(PID.TID 0000.0001) %MON advcfl_W_hf_max              =   6.0282344569344E-03
(PID.TID 0000.0001) %MON pe_b_mean                    =   5.4557816948769E-05
(PID.TID 0000.0001) %MON ke_max                       =   7.7890339468679E-01
(PID.TID 0000.0001) %MON ke_mean                      =   4.1860719321595E-05
(PID.TID 0000.0001) %MON ke_vol                       =   1.3398072202563E+18
(PID.TID 0000.0001) %MON vort_r_min                   =  -3.8561837094404E-06
(PID.TID 0000.0001) %MON vort_r_max                   =   3.8446266333859E-06
(PID.TID 0000.0001) %MON vort_a_mean                  =  -2.0549865324846E-05
(PID.TID 0000.0001) %MON vort_a_sd                    =   7.5259270912321E-05
(PID.TID 0000.0001) %MON vort_p_mean                  =  -2.4783450594641E-05
(PID.TID 0000.0001) %MON vort_p_sd                    =   1.2810617331598E-04
(PID.TID 0000.0001) %MON surfExpan_theta_mean         =   1.5631755703037E-06
(PID.TID 0000.0001) %MON surfExpan_salt_mean          =   2.8449105026621E-07
(PID.TID 0000.0001) // =======================================================
(PID.TID 0000.0001) // End MONITOR dynamic field statistics
(PID.TID 0000.0001) // =======================================================
(PID.TID 0000.0001) // =======================================================
(PID.TID 0000.0001) // Begin MONITOR SEAICE statistics
(PID.TID 0000.0001) // =======================================================
(PID.TID 0000.0001) %MON seaice_tsnumber              =                     5
(PID.TID 0000.0001) %MON seaice_time_sec              =   4.5000000000000E+03
(PID.TID 0000.0001) %MON seaice_uice_max              =   1.0559914969705E+00
(PID.TID 0000.0001) %MON seaice_uice_min              =  -4.4673145769245E-01
(PID.TID 0000.0001) %MON seaice_uice_mean             =   1.8223292000290E-04
(PID.TID 0000.0001) %MON seaice_uice_sd               =   3.8401534507205E-02
(PID.TID 0000.0001) %MON seaice_uice_del2             =   1.1393006278358E-03
(PID.TID 0000.0001) %MON seaice_vice_max              =   9.3910021015256E-01
(PID.TID 0000.0001) %MON seaice_vice_min              =  -8.6719371821224E-01
(PID.TID 0000.0001) %MON seaice_vice_mean             =  -2.5375698040008E-03
(PID.TID 0000.0001) %MON seaice_vice_sd               =   3.6003262566724E-02
(PID.TID 0000.0001) %MON seaice_vice_del2             =   1.4438660621402E-03
(PID.TID 0000.0001) %MON seaice_area_max              =   9.9942557396198E-01
(PID.TID 0000.0001) %MON seaice_area_min              =   0.0000000000000E+00
(PID.TID 0000.0001) %MON seaice_area_mean             =   6.8305106675898E-02
(PID.TID 0000.0001) %MON seaice_area_sd               =   2.3492252729380E-01
(PID.TID 0000.0001) %MON seaice_area_del2             =   1.7810067471873E-03
(PID.TID 0000.0001) %MON seaice_heff_max              =   8.4245066791189E+00
(PID.TID 0000.0001) %MON seaice_heff_min              =   0.0000000000000E+00
(PID.TID 0000.0001) %MON seaice_heff_mean             =   2.0494913581928E-01
(PID.TID 0000.0001) %MON seaice_heff_sd               =   9.7450522688004E-01
(PID.TID 0000.0001) %MON seaice_heff_del2             =   6.2223387315488E-03
(PID.TID 0000.0001) %MON seaice_hsnow_max             =   2.0288371713168E+00
(PID.TID 0000.0001) %MON seaice_hsnow_min             =   0.0000000000000E+00
(PID.TID 0000.0001) %MON seaice_hsnow_mean            =   2.2719568115783E-02
(PID.TID 0000.0001) %MON seaice_hsnow_sd              =   1.1935366130505E-01
(PID.TID 0000.0001) %MON seaice_hsnow_del2            =   1.4634045120947E-03
(PID.TID 0000.0001) // =======================================================
(PID.TID 0000.0001) // End MONITOR SEAICE statistics
(PID.TID 0000.0001) // =======================================================
 Computing Diagnostic #    211  SIarea       Counter:       1   Parms: SM      M1      
 Computing Diagnostic #    214  SIheff       Counter:       1   Parms: SM      M1      
 Computing Diagnostic #    216  SIhsnow      Counter:       1   Parms: SM      M1      
 Computing Diagnostic #     83  sIceLoad     Counter:       1   Parms: SM      U1      
 Computing Diagnostic #    220  SIuice       Counter:       1   Parms: UU      M1      
           Vector  Mate for  SIuice       Diagnostic #    221  SIvice   exists 
 Computing Diagnostic #    221  SIvice       Counter:       1   Parms: VV      M1      
           Vector  Mate for  SIvice       Diagnostic #    220  SIuice   exists 
 Computing Diagnostic #    222  SItaux       Counter:       1   Parms: UU      U1      
           Vector  Mate for  SItaux       Diagnostic #    223  SItauy   exists 
 Computing Diagnostic #    223  SItauy       Counter:       1   Parms: VV      U1      
           Vector  Mate for  SItauy       Diagnostic #    222  SItaux   exists 
 Computing Diagnostic #    284  CPLoWGHT     Counter:       1   Parms: SM      M1      
 Computing Diagnostic #    282  SIareaN      Counter:       1   Parms: SM      MX      
 Computing Diagnostic #    281  SIheffN      Counter:       1   Parms: SM      MX      
 Computing Diagnostic #    283  SIhsnowN     Counter:       1   Parms: SM      MX      
 Computing Diagnostic #    287  SIqSnow      Counter:       1   Parms: SM      MX      
 Computing Diagnostic #    288  SImeltPd     Counter:       1   Parms: SM      MX      
 Computing Diagnostic #    285  SItIces      Counter:       1   Parms: SM      MX      
 Computing Diagnostic #    289  SIiceAge     Counter:       1   Parms: SM      MX      
 Computing Diagnostic #    290  SI_dArea     Counter:       1   Parms: SM      MX      
 Computing Diagnostic #    291  SI_dHeff     Counter:       1   Parms: SM      MX      
 Computing Diagnostic #    292  SI_dHsnw     Counter:       1   Parms: SM      MX      
 Computing Diagnostic #    295  SI_dQSnw     Counter:       1   Parms: SM      MX      
 Computing Diagnostic #    286  SIqIce       Counter:       1   Parms: SM      MX      
 Computing Diagnostic #    294  SI_dQIce     Counter:       1   Parms: SM      MX      
 SEAICE_LSR: Residual Initial ipass,Uice,Vice=    1  1.03568956E-02  6.92119787E-03
 SEAICE_LSR (ipass=   1) iters,dU,Resid=    10  4.26152368E-06  2.83619920E-05
 SEAICE_LSR (ipass=   1) iters,dV,Resid=    10  3.95256932E-05  5.62264018E-06
 SEAICE_LSR: Residual Initial ipass,Uice,Vice=    2  8.24358033E-03  3.95800503E-03
 SEAICE_LSR (ipass=   2) iters,dU,Resid=     8  1.61834005E-05  4.28279682E-05
 SEAICE_LSR (ipass=   2) iters,dV,Resid=     8  5.21952465E-05  8.84844821E-06
 cg2d: Sum(rhs),rhsMax =  -8.88080354374236E+00  1.37198494999947E+02
(PID.TID 0000.0001)      cg2d_init_res =   3.89800409622060E-01
(PID.TID 0000.0001)      cg2d_iters(min,last) =      -1       9
(PID.TID 0000.0001)      cg2d_last_res =   8.89829679831184E-08
(PID.TID 0000.0001) // =======================================================
(PID.TID 0000.0001) // Begin MONITOR dynamic field statistics
(PID.TID 0000.0001) // =======================================================
(PID.TID 0000.0001) %MON time_tsnumber                =                     6
(PID.TID 0000.0001) %MON time_secondsf                =   5.4000000000000E+03
(PID.TID 0000.0001) %MON dynstat_eta_max              =   6.4455642727395E+00
(PID.TID 0000.0001) %MON dynstat_eta_min              =  -1.4653551864244E+00
(PID.TID 0000.0001) %MON dynstat_eta_mean             =   1.4158028544002E-02
(PID.TID 0000.0001) %MON dynstat_eta_sd               =   1.8753491006080E-01
(PID.TID 0000.0001) %MON dynstat_eta_del2             =   5.0718758846083E-03
(PID.TID 0000.0001) %MON dynstat_uvel_max             =   1.4959098253925E+00
(PID.TID 0000.0001) %MON dynstat_uvel_min             =  -5.5229074292209E-01
(PID.TID 0000.0001) %MON dynstat_uvel_mean            =   1.6248398529159E-04
(PID.TID 0000.0001) %MON dynstat_uvel_sd              =   6.7658885763476E-03
(PID.TID 0000.0001) %MON dynstat_uvel_del2            =   1.2665531459254E-04
(PID.TID 0000.0001) %MON dynstat_vvel_max             =   1.2585918685933E+00
(PID.TID 0000.0001) %MON dynstat_vvel_min             =  -1.2401947220193E+00
(PID.TID 0000.0001) %MON dynstat_vvel_mean            =  -1.1185980045414E-05
(PID.TID 0000.0001) %MON dynstat_vvel_sd              =   7.2601211271504E-03
(PID.TID 0000.0001) %MON dynstat_vvel_del2            =   1.7293309718380E-04
(PID.TID 0000.0001) %MON dynstat_wvel_max             =   1.4977154969214E-04
(PID.TID 0000.0001) %MON dynstat_wvel_min             =  -9.2074531738886E-04
(PID.TID 0000.0001) %MON dynstat_wvel_mean            =  -6.5762433905508E-07
(PID.TID 0000.0001) %MON dynstat_wvel_sd              =   1.3002515347552E-05
(PID.TID 0000.0001) %MON dynstat_wvel_del2            =   1.1549889270249E-07
(PID.TID 0000.0001) %MON dynstat_theta_max            =   2.0221312277573E+01
(PID.TID 0000.0001) %MON dynstat_theta_min            =   1.6408601778612E+01
(PID.TID 0000.0001) %MON dynstat_theta_mean           =   1.9997661149246E+01
(PID.TID 0000.0001) %MON dynstat_theta_sd             =   1.9116759783569E-02
(PID.TID 0000.0001) %MON dynstat_theta_del2           =   2.8537627048213E-04
(PID.TID 0000.0001) %MON dynstat_salt_max             =   3.5061988399195E+01
(PID.TID 0000.0001) %MON dynstat_salt_min             =   3.4012737945894E+01
(PID.TID 0000.0001) %MON dynstat_salt_mean            =   3.4999886309920E+01
(PID.TID 0000.0001) %MON dynstat_salt_sd              =   5.1667144916897E-03
(PID.TID 0000.0001) %MON dynstat_salt_del2            =   1.3192635693729E-04
(PID.TID 0000.0001) %MON dynstat_sst_max              =   2.0221312277573E+01
(PID.TID 0000.0001) %MON dynstat_sst_min              =   1.6408601778612E+01
(PID.TID 0000.0001) %MON dynstat_sst_mean             =   1.9978887511032E+01
(PID.TID 0000.0001) %MON dynstat_sst_sd               =   1.1870527782706E-01
(PID.TID 0000.0001) %MON dynstat_sst_del2             =   3.2419439061247E-03
(PID.TID 0000.0001) %MON dynstat_sss_max              =   3.5061988399195E+01
(PID.TID 0000.0001) %MON dynstat_sss_min              =   3.4012737945894E+01
(PID.TID 0000.0001) %MON dynstat_sss_mean             =   3.4996437297370E+01
(PID.TID 0000.0001) %MON dynstat_sss_sd               =   4.2621077550534E-02
(PID.TID 0000.0001) %MON dynstat_sss_del2             =   1.6504894354154E-03
(PID.TID 0000.0001) %MON forcing_qnet_max             =   1.2905413551655E+04
(PID.TID 0000.0001) %MON forcing_qnet_min             =  -8.1659270478892E+03
(PID.TID 0000.0001) %MON forcing_qnet_mean            =  -2.5402163260380E+02
(PID.TID 0000.0001) %MON forcing_qnet_sd              =   1.0789653439294E+03
(PID.TID 0000.0001) %MON forcing_qnet_del2            =   2.0919265684057E+01
(PID.TID 0000.0001) %MON forcing_qsw_max              =   0.0000000000000E+00
(PID.TID 0000.0001) %MON forcing_qsw_min              =  -1.0307191121367E+02
(PID.TID 0000.0001) %MON forcing_qsw_mean             =  -2.2266236548492E+01
(PID.TID 0000.0001) %MON forcing_qsw_sd               =   2.9974594743546E+01
(PID.TID 0000.0001) %MON forcing_qsw_del2             =   1.5432770971118E-01
(PID.TID 0000.0001) %MON forcing_empmr_max            =   1.0534610599279E-02
(PID.TID 0000.0001) %MON forcing_empmr_min            =  -1.5138797461987E-01
(PID.TID 0000.0001) %MON forcing_empmr_mean           =  -5.8900537189955E-04
(PID.TID 0000.0001) %MON forcing_empmr_sd             =   6.6710379319260E-03
(PID.TID 0000.0001) %MON forcing_empmr_del2           =   2.6410588515554E-04
(PID.TID 0000.0001) %MON forcing_fu_max               =   9.2333091577794E-01
(PID.TID 0000.0001) %MON forcing_fu_min               =  -5.3322884724018E-01
(PID.TID 0000.0001) %MON forcing_fu_mean              =  -3.1380717811678E-03
(PID.TID 0000.0001) %MON forcing_fu_sd                =   1.1098879018551E-01
(PID.TID 0000.0001) %MON forcing_fu_del2              =   1.0035778281252E-03
(PID.TID 0000.0001) %MON forcing_fv_max               =   5.0273647072079E-01
(PID.TID 0000.0001) %MON forcing_fv_min               =  -5.3364811183303E-01
(PID.TID 0000.0001) %MON forcing_fv_mean              =  -8.8636272814769E-03
(PID.TID 0000.0001) %MON forcing_fv_sd                =   9.5035025317694E-02
(PID.TID 0000.0001) %MON forcing_fv_del2              =   8.5598694515891E-04
(PID.TID 0000.0001) %MON trAdv_CFL_u_max              =   4.7299001199179E-03
(PID.TID 0000.0001) %MON trAdv_CFL_v_max              =   6.7257699269661E-03
(PID.TID 0000.0001) %MON trAdv_CFL_w_max              =   6.6205090806091E-03
(PID.TID 0000.0001) %MON advcfl_uvel_max              =   4.9885101716525E-03
(PID.TID 0000.0001) %MON advcfl_vvel_max              =   4.1072443640838E-03
(PID.TID 0000.0001) %MON advcfl_wvel_max              =   5.4651236051770E-03
(PID.TID 0000.0001) %MON advcfl_W_hf_max              =   6.6205090806091E-03
(PID.TID 0000.0001) %MON pe_b_mean                    =   4.7118924863642E-05
(PID.TID 0000.0001) %MON ke_max                       =   1.0187439815685E+00
(PID.TID 0000.0001) %MON ke_mean                      =   4.5495987576590E-05
(PID.TID 0000.0001) %MON ke_vol                       =   1.3398074109066E+18
(PID.TID 0000.0001) %MON vort_r_min                   =  -4.2825950278856E-06
(PID.TID 0000.0001) %MON vort_r_max                   =   4.2666984327943E-06
(PID.TID 0000.0001) %MON vort_a_mean                  =  -2.0549865324846E-05
(PID.TID 0000.0001) %MON vort_a_sd                    =   7.5259271274692E-05
(PID.TID 0000.0001) %MON vort_p_mean                  =  -2.4783444921275E-05
(PID.TID 0000.0001) %MON vort_p_sd                    =   1.2810609497238E-04
(PID.TID 0000.0001) %MON surfExpan_theta_mean         =   1.7074118078796E-06
(PID.TID 0000.0001) %MON surfExpan_salt_mean          =   3.2870335808229E-07
(PID.TID 0000.0001) // =======================================================
(PID.TID 0000.0001) // End MONITOR dynamic field statistics
(PID.TID 0000.0001) // =======================================================
(PID.TID 0000.0001) // =======================================================
(PID.TID 0000.0001) // Begin MONITOR SEAICE statistics
(PID.TID 0000.0001) // =======================================================
(PID.TID 0000.0001) %MON seaice_tsnumber              =                     6
(PID.TID 0000.0001) %MON seaice_time_sec              =   5.4000000000000E+03
(PID.TID 0000.0001) %MON seaice_uice_max              =   1.2788351441310E+00
(PID.TID 0000.0001) %MON seaice_uice_min              =  -4.1236174403935E-01
(PID.TID 0000.0001) %MON seaice_uice_mean             =   3.4683385915319E-04
(PID.TID 0000.0001) %MON seaice_uice_sd               =   4.2255009886538E-02
(PID.TID 0000.0001) %MON seaice_uice_del2             =   1.2472381052377E-03
(PID.TID 0000.0001) %MON seaice_vice_max              =   1.1112727696165E+00
(PID.TID 0000.0001) %MON seaice_vice_min              =  -1.0657717778509E+00
(PID.TID 0000.0001) %MON seaice_vice_mean             =  -2.6751867303606E-03
(PID.TID 0000.0001) %MON seaice_vice_sd               =   4.0576875609440E-02
(PID.TID 0000.0001) %MON seaice_vice_del2             =   1.6588963404171E-03
(PID.TID 0000.0001) %MON seaice_area_max              =   9.9939392741480E-01
(PID.TID 0000.0001) %MON seaice_area_min              =   0.0000000000000E+00
(PID.TID 0000.0001) %MON seaice_area_mean             =   6.8211638198350E-02
(PID.TID 0000.0001) %MON seaice_area_sd               =   2.3466366044542E-01
(PID.TID 0000.0001) %MON seaice_area_del2             =   1.7750963736811E-03
(PID.TID 0000.0001) %MON seaice_heff_max              =   8.4219099916901E+00
(PID.TID 0000.0001) %MON seaice_heff_min              =   0.0000000000000E+00
(PID.TID 0000.0001) %MON seaice_heff_mean             =   2.0477691604424E-01
(PID.TID 0000.0001) %MON seaice_heff_sd               =   9.7404116582253E-01
(PID.TID 0000.0001) %MON seaice_heff_del2             =   6.2205296816588E-03
(PID.TID 0000.0001) %MON seaice_hsnow_max             =   2.0280976802756E+00
(PID.TID 0000.0001) %MON seaice_hsnow_min             =   0.0000000000000E+00
(PID.TID 0000.0001) %MON seaice_hsnow_mean            =   2.2702545178140E-02
(PID.TID 0000.0001) %MON seaice_hsnow_sd              =   1.1929485444840E-01
(PID.TID 0000.0001) %MON seaice_hsnow_del2            =   1.4626442576781E-03
(PID.TID 0000.0001) // =======================================================
(PID.TID 0000.0001) // End MONITOR SEAICE statistics
(PID.TID 0000.0001) // =======================================================
 SEAICE_LSR: Residual Initial ipass,Uice,Vice=    1  1.15056624E-02  5.21043216E-03
 SEAICE_LSR (ipass=   1) iters,dU,Resid=     8  2.01571142E-05  5.79161801E-05
 SEAICE_LSR (ipass=   1) iters,dV,Resid=     8  6.48895456E-05  8.50705925E-06
 SEAICE_LSR: Residual Initial ipass,Uice,Vice=    2  9.67743278E-03  3.11255856E-03
 SEAICE_LSR (ipass=   2) iters,dU,Resid=     8  1.36180250E-05  2.73369992E-05
 SEAICE_LSR (ipass=   2) iters,dV,Resid=     8  2.67732687E-05  6.77314202E-06
 cg2d: Sum(rhs),rhsMax =  -1.02204084935760E+01  1.23492892307899E+02
(PID.TID 0000.0001)      cg2d_init_res =   3.80496503484637E-01
(PID.TID 0000.0001)      cg2d_iters(min,last) =      -1      10
(PID.TID 0000.0001)      cg2d_last_res =   3.06085351379587E-08
(PID.TID 0000.0001) // =======================================================
(PID.TID 0000.0001) // Begin MONITOR dynamic field statistics
(PID.TID 0000.0001) // =======================================================
(PID.TID 0000.0001) %MON time_tsnumber                =                     7
(PID.TID 0000.0001) %MON time_secondsf                =   6.3000000000000E+03
(PID.TID 0000.0001) %MON dynstat_eta_max              =   5.7891450180241E+00
(PID.TID 0000.0001) %MON dynstat_eta_min              =  -2.2288003772757E+00
(PID.TID 0000.0001) %MON dynstat_eta_mean             =   1.4665990175422E-02
(PID.TID 0000.0001) %MON dynstat_eta_sd               =   1.7533941497209E-01
(PID.TID 0000.0001) %MON dynstat_eta_del2             =   4.5774867373105E-03
(PID.TID 0000.0001) %MON dynstat_uvel_max             =   1.6637135294412E+00
(PID.TID 0000.0001) %MON dynstat_uvel_min             =  -6.1729351074374E-01
(PID.TID 0000.0001) %MON dynstat_uvel_mean            =   1.9816913566252E-04
(PID.TID 0000.0001) %MON dynstat_uvel_sd              =   7.0181819137639E-03
(PID.TID 0000.0001) %MON dynstat_uvel_del2            =   1.2983207943790E-04
(PID.TID 0000.0001) %MON dynstat_vvel_max             =   1.3631692575934E+00
(PID.TID 0000.0001) %MON dynstat_vvel_min             =  -1.3722256500556E+00
(PID.TID 0000.0001) %MON dynstat_vvel_mean            =  -1.4147845260140E-05
(PID.TID 0000.0001) %MON dynstat_vvel_sd              =   7.3854362225086E-03
(PID.TID 0000.0001) %MON dynstat_vvel_del2            =   1.8086528718690E-04
(PID.TID 0000.0001) %MON dynstat_wvel_max             =   1.0200575438540E-04
(PID.TID 0000.0001) %MON dynstat_wvel_min             =  -7.8573899340850E-04
(PID.TID 0000.0001) %MON dynstat_wvel_mean            =  -6.2723181401083E-07
(PID.TID 0000.0001) %MON dynstat_wvel_sd              =   1.1709347007687E-05
(PID.TID 0000.0001) %MON dynstat_wvel_del2            =   1.0204665738094E-07
(PID.TID 0000.0001) %MON dynstat_theta_max            =   2.0256673886093E+01
(PID.TID 0000.0001) %MON dynstat_theta_min            =   1.6387105002997E+01
(PID.TID 0000.0001) %MON dynstat_theta_mean           =   1.9997675254107E+01
(PID.TID 0000.0001) %MON dynstat_theta_sd             =   1.8907292815882E-02
(PID.TID 0000.0001) %MON dynstat_theta_del2           =   2.8484668107464E-04
(PID.TID 0000.0001) %MON dynstat_salt_max             =   3.5066480281535E+01
(PID.TID 0000.0001) %MON dynstat_salt_min             =   3.3861819840181E+01
(PID.TID 0000.0001) %MON dynstat_salt_mean            =   3.4999880309000E+01
(PID.TID 0000.0001) %MON dynstat_salt_sd              =   5.8350663756408E-03
(PID.TID 0000.0001) %MON dynstat_salt_del2            =   1.5105774321539E-04
(PID.TID 0000.0001) %MON dynstat_sst_max              =   2.0256673886093E+01
(PID.TID 0000.0001) %MON dynstat_sst_min              =   1.6387105002997E+01
(PID.TID 0000.0001) %MON dynstat_sst_mean             =   1.9983126263328E+01
(PID.TID 0000.0001) %MON dynstat_sst_sd               =   1.1904947183343E-01
(PID.TID 0000.0001) %MON dynstat_sst_del2             =   3.2292477470620E-03
(PID.TID 0000.0001) %MON dynstat_sss_max              =   3.5066480281535E+01
(PID.TID 0000.0001) %MON dynstat_sss_min              =   3.3861819840181E+01
(PID.TID 0000.0001) %MON dynstat_sss_mean             =   3.4996130253694E+01
(PID.TID 0000.0001) %MON dynstat_sss_sd               =   4.8568331761056E-02
(PID.TID 0000.0001) %MON dynstat_sss_del2             =   1.8916750836091E-03
(PID.TID 0000.0001) %MON forcing_qnet_max             =   3.0395314857850E+04
(PID.TID 0000.0001) %MON forcing_qnet_min             =  -1.1617619572917E+04
(PID.TID 0000.0001) %MON forcing_qnet_mean            =  -2.3907505695068E+02
(PID.TID 0000.0001) %MON forcing_qnet_sd              =   1.1465289557166E+03
(PID.TID 0000.0001) %MON forcing_qnet_del2            =   2.7551675147725E+01
(PID.TID 0000.0001) %MON forcing_qsw_max              =   0.0000000000000E+00
(PID.TID 0000.0001) %MON forcing_qsw_min              =  -1.0273005345242E+02
(PID.TID 0000.0001) %MON forcing_qsw_mean             =  -2.2236147516839E+01
(PID.TID 0000.0001) %MON forcing_qsw_sd               =   2.9962294736212E+01
(PID.TID 0000.0001) %MON forcing_qsw_del2             =   1.5592729014170E-01
(PID.TID 0000.0001) %MON forcing_empmr_max            =   1.0426022112370E-02
(PID.TID 0000.0001) %MON forcing_empmr_min            =  -1.4982895553112E-01
(PID.TID 0000.0001) %MON forcing_empmr_mean           =  -5.8415587613265E-04
(PID.TID 0000.0001) %MON forcing_empmr_sd             =   6.6028903835655E-03
(PID.TID 0000.0001) %MON forcing_empmr_del2           =   2.6139249125276E-04
(PID.TID 0000.0001) %MON forcing_fu_max               =   9.5081592947741E-01
(PID.TID 0000.0001) %MON forcing_fu_min               =  -5.3927638607092E-01
(PID.TID 0000.0001) %MON forcing_fu_mean              =  -3.0397987875202E-03
(PID.TID 0000.0001) %MON forcing_fu_sd                =   1.1152001305985E-01
(PID.TID 0000.0001) %MON forcing_fu_del2              =   9.9983394913454E-04
(PID.TID 0000.0001) %MON forcing_fv_max               =   4.9909720730388E-01
(PID.TID 0000.0001) %MON forcing_fv_min               =  -5.4346602173063E-01
(PID.TID 0000.0001) %MON forcing_fv_mean              =  -8.2418734642625E-03
(PID.TID 0000.0001) %MON forcing_fv_sd                =   9.5106790659402E-02
(PID.TID 0000.0001) %MON forcing_fv_del2              =   8.5600059775280E-04
(PID.TID 0000.0001) %MON trAdv_CFL_u_max              =   5.2895752859738E-03
(PID.TID 0000.0001) %MON trAdv_CFL_v_max              =   7.4402717069460E-03
(PID.TID 0000.0001) %MON trAdv_CFL_w_max              =   7.0138553545778E-03
(PID.TID 0000.0001) %MON advcfl_uvel_max              =   5.5480963648031E-03
(PID.TID 0000.0001) %MON advcfl_vvel_max              =   4.4485185311108E-03
(PID.TID 0000.0001) %MON advcfl_wvel_max              =   5.7923982373654E-03
(PID.TID 0000.0001) %MON advcfl_W_hf_max              =   7.0138553545778E-03
(PID.TID 0000.0001) %MON pe_b_mean                    =   4.1242952790183E-05
(PID.TID 0000.0001) %MON ke_max                       =   1.2430954997516E+00
(PID.TID 0000.0001) %MON ke_mean                      =   4.7951499775030E-05
(PID.TID 0000.0001) %MON ke_vol                       =   1.3398075972816E+18
(PID.TID 0000.0001) %MON vort_r_min                   =  -4.5800406650675E-06
(PID.TID 0000.0001) %MON vort_r_max                   =   4.5637555914280E-06
(PID.TID 0000.0001) %MON vort_a_mean                  =  -2.0549865324846E-05
(PID.TID 0000.0001) %MON vort_a_sd                    =   7.5259270943741E-05
(PID.TID 0000.0001) %MON vort_p_mean                  =  -2.4783439357025E-05
(PID.TID 0000.0001) %MON vort_p_sd                    =   1.2810603639388E-04
(PID.TID 0000.0001) %MON surfExpan_theta_mean         =   1.7944877236004E-06
(PID.TID 0000.0001) %MON surfExpan_salt_mean          =   3.6758787046543E-07
(PID.TID 0000.0001) // =======================================================
(PID.TID 0000.0001) // End MONITOR dynamic field statistics
(PID.TID 0000.0001) // =======================================================
(PID.TID 0000.0001) // =======================================================
(PID.TID 0000.0001) // Begin MONITOR SEAICE statistics
(PID.TID 0000.0001) // =======================================================
(PID.TID 0000.0001) %MON seaice_tsnumber              =                     7
(PID.TID 0000.0001) %MON seaice_time_sec              =   6.3000000000000E+03
(PID.TID 0000.0001) %MON seaice_uice_max              =   1.4720462773191E+00
(PID.TID 0000.0001) %MON seaice_uice_min              =  -4.8578759222957E-01
(PID.TID 0000.0001) %MON seaice_uice_mean             =   5.1546181992723E-04
(PID.TID 0000.0001) %MON seaice_uice_sd               =   4.6041511578186E-02
(PID.TID 0000.0001) %MON seaice_uice_del2             =   1.3339212782928E-03
(PID.TID 0000.0001) %MON seaice_vice_max              =   1.2475114654291E+00
(PID.TID 0000.0001) %MON seaice_vice_min              =  -1.2365583106331E+00
(PID.TID 0000.0001) %MON seaice_vice_mean             =  -2.9053464467174E-03
(PID.TID 0000.0001) %MON seaice_vice_sd               =   4.4549468827153E-02
(PID.TID 0000.0001) %MON seaice_vice_del2             =   1.8204026843340E-03
(PID.TID 0000.0001) %MON seaice_area_max              =   9.9935539196155E-01
(PID.TID 0000.0001) %MON seaice_area_min              =   0.0000000000000E+00
(PID.TID 0000.0001) %MON seaice_area_mean             =   6.8118143110796E-02
(PID.TID 0000.0001) %MON seaice_area_sd               =   2.3440537021437E-01
(PID.TID 0000.0001) %MON seaice_area_del2             =   1.7693729445921E-03
(PID.TID 0000.0001) %MON seaice_heff_max              =   8.4193118079049E+00
(PID.TID 0000.0001) %MON seaice_heff_min              =   0.0000000000000E+00
(PID.TID 0000.0001) %MON seaice_heff_mean             =   2.0460452585504E-01
(PID.TID 0000.0001) %MON seaice_heff_sd               =   9.7357634492619E-01
(PID.TID 0000.0001) %MON seaice_heff_del2             =   6.2187599264285E-03
(PID.TID 0000.0001) %MON seaice_hsnow_max             =   2.0273610316636E+00
(PID.TID 0000.0001) %MON seaice_hsnow_min             =   0.0000000000000E+00
(PID.TID 0000.0001) %MON seaice_hsnow_mean            =   2.2685500565644E-02
(PID.TID 0000.0001) %MON seaice_hsnow_sd              =   1.1923623786522E-01
(PID.TID 0000.0001) %MON seaice_hsnow_del2            =   1.4618937503699E-03
(PID.TID 0000.0001) // =======================================================
(PID.TID 0000.0001) // End MONITOR SEAICE statistics
(PID.TID 0000.0001) // =======================================================
 SEAICE_LSR: Residual Initial ipass,Uice,Vice=    1  1.15627836E-02  4.00265578E-03
 SEAICE_LSR (ipass=   1) iters,dU,Resid=     8  1.89190376E-05  2.44040938E-05
 SEAICE_LSR (ipass=   1) iters,dV,Resid=     8  3.21966268E-05  3.30443266E-06
 SEAICE_LSR: Residual Initial ipass,Uice,Vice=    2  7.65842126E-03  2.21412890E-03
 SEAICE_LSR (ipass=   2) iters,dU,Resid=     6  7.45859963E-05  1.78381041E-05
 SEAICE_LSR (ipass=   2) iters,dV,Resid=     6  7.40749421E-05  5.86074728E-06
 cg2d: Sum(rhs),rhsMax =  -1.19895723547013E+01  1.08888620540616E+02
(PID.TID 0000.0001)      cg2d_init_res =   3.88519505448336E-01
(PID.TID 0000.0001)      cg2d_iters(min,last) =      -1      10
(PID.TID 0000.0001)      cg2d_last_res =   3.82633565080593E-08
(PID.TID 0000.0001) // =======================================================
(PID.TID 0000.0001) // Begin MONITOR dynamic field statistics
(PID.TID 0000.0001) // =======================================================
(PID.TID 0000.0001) %MON time_tsnumber                =                     8
(PID.TID 0000.0001) %MON time_secondsf                =   7.2000000000000E+03
(PID.TID 0000.0001) %MON dynstat_eta_max              =   5.1083756158968E+00
(PID.TID 0000.0001) %MON dynstat_eta_min              =  -3.0657910616746E+00
(PID.TID 0000.0001) %MON dynstat_eta_mean             =   1.5170062222234E-02
(PID.TID 0000.0001) %MON dynstat_eta_sd               =   1.6392326689550E-01
(PID.TID 0000.0001) %MON dynstat_eta_del2             =   4.1319936588970E-03
(PID.TID 0000.0001) %MON dynstat_uvel_max             =   1.8022743605698E+00
(PID.TID 0000.0001) %MON dynstat_uvel_min             =  -6.7264407034345E-01
(PID.TID 0000.0001) %MON dynstat_uvel_mean            =   2.3179106347093E-04
(PID.TID 0000.0001) %MON dynstat_uvel_sd              =   7.2892100381860E-03
(PID.TID 0000.0001) %MON dynstat_uvel_del2            =   1.3263390130194E-04
(PID.TID 0000.0001) %MON dynstat_vvel_max             =   1.4351481915678E+00
(PID.TID 0000.0001) %MON dynstat_vvel_min             =  -1.4756614034821E+00
(PID.TID 0000.0001) %MON dynstat_vvel_mean            =  -1.7734581331292E-05
(PID.TID 0000.0001) %MON dynstat_vvel_sd              =   7.4235592910833E-03
(PID.TID 0000.0001) %MON dynstat_vvel_del2            =   1.8472361617071E-04
(PID.TID 0000.0001) %MON dynstat_wvel_max             =   7.3085015413722E-05
(PID.TID 0000.0001) %MON dynstat_wvel_min             =  -6.1650939585871E-04
(PID.TID 0000.0001) %MON dynstat_wvel_mean            =  -5.6911970313422E-07
(PID.TID 0000.0001) %MON dynstat_wvel_sd              =   1.0229035611471E-05
(PID.TID 0000.0001) %MON dynstat_wvel_del2            =   8.8616048901790E-08
(PID.TID 0000.0001) %MON dynstat_theta_max            =   2.0291616193455E+01
(PID.TID 0000.0001) %MON dynstat_theta_min            =   1.6364394372566E+01
(PID.TID 0000.0001) %MON dynstat_theta_mean           =   1.9997687526629E+01
(PID.TID 0000.0001) %MON dynstat_theta_sd             =   1.8804385782392E-02
(PID.TID 0000.0001) %MON dynstat_theta_del2           =   2.7966435961203E-04
(PID.TID 0000.0001) %MON dynstat_salt_max             =   3.5070392392854E+01
(PID.TID 0000.0001) %MON dynstat_salt_min             =   3.3714541709079E+01
(PID.TID 0000.0001) %MON dynstat_salt_mean            =   3.4999873969767E+01
(PID.TID 0000.0001) %MON dynstat_salt_sd              =   6.5044531569725E-03
(PID.TID 0000.0001) %MON dynstat_salt_del2            =   1.6974025981418E-04
(PID.TID 0000.0001) %MON dynstat_sst_max              =   2.0291616193455E+01
(PID.TID 0000.0001) %MON dynstat_sst_min              =   1.6364394372566E+01
(PID.TID 0000.0001) %MON dynstat_sst_mean             =   1.9986619983981E+01
(PID.TID 0000.0001) %MON dynstat_sst_sd               =   1.2007348699953E-01
(PID.TID 0000.0001) %MON dynstat_sst_del2             =   3.1518516100848E-03
(PID.TID 0000.0001) %MON dynstat_sss_max              =   3.5070392392854E+01
(PID.TID 0000.0001) %MON dynstat_sss_min              =   3.3714541709079E+01
(PID.TID 0000.0001) %MON dynstat_sss_mean             =   3.4995786856786E+01
(PID.TID 0000.0001) %MON dynstat_sss_sd               =   5.4462326460258E-02
(PID.TID 0000.0001) %MON dynstat_sss_del2             =   2.1269870844906E-03
(PID.TID 0000.0001) %MON forcing_qnet_max             =   8.6182785364644E+04
(PID.TID 0000.0001) %MON forcing_qnet_min             =  -1.3519427734375E+04
(PID.TID 0000.0001) %MON forcing_qnet_mean            =  -2.0764957210527E+02
(PID.TID 0000.0001) %MON forcing_qnet_sd              =   1.7485243051771E+03
(PID.TID 0000.0001) %MON forcing_qnet_del2            =   5.5476833018770E+01
(PID.TID 0000.0001) %MON forcing_qsw_max              =   0.0000000000000E+00
(PID.TID 0000.0001) %MON forcing_qsw_min              =  -1.0470512441087E+02
(PID.TID 0000.0001) %MON forcing_qsw_mean             =  -2.2135248532893E+01
(PID.TID 0000.0001) %MON forcing_qsw_sd               =   2.9897785752937E+01
(PID.TID 0000.0001) %MON forcing_qsw_del2             =   1.5743478210045E-01
(PID.TID 0000.0001) %MON forcing_empmr_max            =   1.0318516753614E-02
(PID.TID 0000.0001) %MON forcing_empmr_min            =  -1.4828503131866E-01
(PID.TID 0000.0001) %MON forcing_empmr_mean           =  -5.7968285383420E-04
(PID.TID 0000.0001) %MON forcing_empmr_sd             =   6.5355653003271E-03
(PID.TID 0000.0001) %MON forcing_empmr_del2           =   2.5871082981450E-04
(PID.TID 0000.0001) %MON forcing_fu_max               =   9.7770779972416E-01
(PID.TID 0000.0001) %MON forcing_fu_min               =  -5.5382659150122E-01
(PID.TID 0000.0001) %MON forcing_fu_mean              =  -2.9420024091021E-03
(PID.TID 0000.0001) %MON forcing_fu_sd                =   1.1137294061053E-01
(PID.TID 0000.0001) %MON forcing_fu_del2              =   9.9140309777354E-04
(PID.TID 0000.0001) %MON forcing_fv_max               =   4.9795232377321E-01
(PID.TID 0000.0001) %MON forcing_fv_min               =  -5.5687904978940E-01
(PID.TID 0000.0001) %MON forcing_fv_mean              =  -7.7511703387958E-03
(PID.TID 0000.0001) %MON forcing_fv_sd                =   9.4751229571773E-02
(PID.TID 0000.0001) %MON forcing_fv_del2              =   8.5231644832406E-04
(PID.TID 0000.0001) %MON trAdv_CFL_u_max              =   5.7618014575943E-03
(PID.TID 0000.0001) %MON trAdv_CFL_v_max              =   8.0132448168620E-03
(PID.TID 0000.0001) %MON trAdv_CFL_w_max              =   7.2308419229087E-03
(PID.TID 0000.0001) %MON advcfl_uvel_max              =   6.0101644010877E-03
(PID.TID 0000.0001) %MON advcfl_vvel_max              =   4.6834120484426E-03
(PID.TID 0000.0001) %MON advcfl_wvel_max              =   5.9733922440148E-03
(PID.TID 0000.0001) %MON advcfl_W_hf_max              =   7.2308419229087E-03
(PID.TID 0000.0001) %MON pe_b_mean                    =   3.6103354010271E-05
(PID.TID 0000.0001) %MON ke_max                       =   1.4363955509272E+00
(PID.TID 0000.0001) %MON ke_mean                      =   5.0001961371901E-05
(PID.TID 0000.0001) %MON ke_vol                       =   1.3398077821221E+18
(PID.TID 0000.0001) %MON vort_r_min                   =  -4.8706723163842E-06
(PID.TID 0000.0001) %MON vort_r_max                   =   4.7370388825497E-06
(PID.TID 0000.0001) %MON vort_a_mean                  =  -2.0549865324846E-05
(PID.TID 0000.0001) %MON vort_a_sd                    =   7.5259270200383E-05
(PID.TID 0000.0001) %MON vort_p_mean                  =  -2.4783433978927E-05
(PID.TID 0000.0001) %MON vort_p_sd                    =   1.2810600431425E-04
(PID.TID 0000.0001) %MON surfExpan_theta_mean         =   1.8162882079818E-06
(PID.TID 0000.0001) %MON surfExpan_salt_mean          =   3.9861237431449E-07
(PID.TID 0000.0001) // =======================================================
(PID.TID 0000.0001) // End MONITOR dynamic field statistics
(PID.TID 0000.0001) // =======================================================
(PID.TID 0000.0001) // =======================================================
(PID.TID 0000.0001) // Begin MONITOR SEAICE statistics
(PID.TID 0000.0001) // =======================================================
(PID.TID 0000.0001) %MON seaice_tsnumber              =                     8
(PID.TID 0000.0001) %MON seaice_time_sec              =   7.2000000000000E+03
(PID.TID 0000.0001) %MON seaice_uice_max              =   1.6349921701996E+00
(PID.TID 0000.0001) %MON seaice_uice_min              =  -5.4787904728405E-01
(PID.TID 0000.0001) %MON seaice_uice_mean             =   6.2409543764042E-04
(PID.TID 0000.0001) %MON seaice_uice_sd               =   4.9343804650678E-02
(PID.TID 0000.0001) %MON seaice_uice_del2             =   1.4088941447956E-03
(PID.TID 0000.0001) %MON seaice_vice_max              =   1.3491433190493E+00
(PID.TID 0000.0001) %MON seaice_vice_min              =  -1.3791358276553E+00
(PID.TID 0000.0001) %MON seaice_vice_mean             =  -3.1306187570776E-03
(PID.TID 0000.0001) %MON seaice_vice_sd               =   4.7677028869792E-02
(PID.TID 0000.0001) %MON seaice_vice_del2             =   1.9319902637012E-03
(PID.TID 0000.0001) %MON seaice_area_max              =   9.9930973890562E-01
(PID.TID 0000.0001) %MON seaice_area_min              =   0.0000000000000E+00
(PID.TID 0000.0001) %MON seaice_area_mean             =   6.8024503698628E-02
(PID.TID 0000.0001) %MON seaice_area_sd               =   2.3414719379261E-01
(PID.TID 0000.0001) %MON seaice_area_del2             =   1.7638769560725E-03
(PID.TID 0000.0001) %MON seaice_heff_max              =   8.4167121469244E+00
(PID.TID 0000.0001) %MON seaice_heff_min              =   0.0000000000000E+00
(PID.TID 0000.0001) %MON seaice_heff_mean             =   2.0443181578846E-01
(PID.TID 0000.0001) %MON seaice_heff_sd               =   9.7311056757111E-01
(PID.TID 0000.0001) %MON seaice_heff_del2             =   6.2170438116408E-03
(PID.TID 0000.0001) %MON seaice_hsnow_max             =   2.0266264391821E+00
(PID.TID 0000.0001) %MON seaice_hsnow_min             =   0.0000000000000E+00
(PID.TID 0000.0001) %MON seaice_hsnow_mean            =   2.2668131919288E-02
(PID.TID 0000.0001) %MON seaice_hsnow_sd              =   1.1917760608137E-01
(PID.TID 0000.0001) %MON seaice_hsnow_del2            =   1.4611447910251E-03
(PID.TID 0000.0001) // =======================================================
(PID.TID 0000.0001) // End MONITOR SEAICE statistics
(PID.TID 0000.0001) // =======================================================
 Compute Stats, Diag. #    211  SIarea    vol(   0 ): 1.456E+15  Parms: SM      M1      
 Compute Stats, Diag. #    214  SIheff    vol(   0 ): 1.456E+15  Parms: SM      M1      
 Compute Stats, Diag. #    216  SIhsnow   vol(   0 ): 1.456E+15  Parms: SM      M1      
 Compute Stats, Diag. #     83  sIceLoad  vol(   0 ): 1.456E+15  Parms: SM      U1      
 Compute Stats, Diag. #    220  SIuice    vol(   0 ): 1.383E+15  Parms: UU      M1      
 Compute Stats, Diag. #    221  SIvice    vol(   0 ): 1.391E+15  Parms: VV      M1      
 Compute Stats, Diag. #    222  SItaux    vol(   0 ): 1.383E+15  Parms: UU      U1      
 Compute Stats, Diag. #    223  SItauy    vol(   0 ): 1.391E+15  Parms: VV      U1      
 Compute Stats, Diag. #    282  SIareaN   vol(   0 ): 7.278E+15  Parms: SM      MX      
 Compute Stats, Diag. #    281  SIheffN   vol(   0 ): 7.278E+15  Parms: SM      MX      
 Compute Stats, Diag. #    283  SIhsnowN  vol(   0 ): 7.278E+15  Parms: SM      MX      
 Compute Stats, Diag. #    287  SIqSnow   vol(   0 ): 7.278E+15  Parms: SM      MX      
 Compute Stats, Diag. #    286  SIqIce    vol(   0 ): 2.911E+16  Parms: SM      MX      
 Compute Stats, Diag. #    288  SImeltPd  vol(   0 ): 7.278E+15  Parms: SM      MX      
 Compute Stats, Diag. #    285  SItIces   vol(   0 ): 7.278E+15  Parms: SM      MX      
 Compute Stats, Diag. #    289  SIiceAge  vol(   0 ): 7.278E+15  Parms: SM      MX      
 Compute Stats, Diag. #    290  SI_dArea  vol(   0 ): 7.278E+15  Parms: SM      MX      
 Compute Stats, Diag. #    291  SI_dHeff  vol(   0 ): 7.278E+15  Parms: SM      MX      
 Compute Stats, Diag. #    292  SI_dHsnw  vol(   0 ): 7.278E+15  Parms: SM      MX      
 Compute Stats, Diag. #    295  SI_dQSnw  vol(   0 ): 7.278E+15  Parms: SM      MX      
 Compute Stats, Diag. #    294  SI_dQIce  vol(   0 ): 2.911E+16  Parms: SM      MX      
 SEAICE_LSR: Residual Initial ipass,Uice,Vice=    1  9.08584633E-03  3.11293189E-03
 SEAICE_LSR (ipass=   1) iters,dU,Resid=     8  1.98179798E-05  9.02956262E-06
 SEAICE_LSR (ipass=   1) iters,dV,Resid=     8  1.62838075E-05  2.97493369E-06
 SEAICE_LSR: Residual Initial ipass,Uice,Vice=    2  5.10830229E-03  1.66399288E-03
 SEAICE_LSR (ipass=   2) iters,dU,Resid=     6  7.26106739E-05  1.49423506E-05
 SEAICE_LSR (ipass=   2) iters,dV,Resid=     6  4.50800229E-05  4.48391580E-06
 cg2d: Sum(rhs),rhsMax =  -1.43962172516416E+01  9.36841911218552E+01
(PID.TID 0000.0001)      cg2d_init_res =   4.23357393695587E-01
(PID.TID 0000.0001)      cg2d_iters(min,last) =      -1      10
(PID.TID 0000.0001)      cg2d_last_res =   4.84543307260012E-08
(PID.TID 0000.0001) // =======================================================
(PID.TID 0000.0001) // Begin MONITOR dynamic field statistics
(PID.TID 0000.0001) // =======================================================
(PID.TID 0000.0001) %MON time_tsnumber                =                     9
(PID.TID 0000.0001) %MON time_secondsf                =   8.1000000000000E+03
(PID.TID 0000.0001) %MON dynstat_eta_max              =   4.3993367074469E+00
(PID.TID 0000.0001) %MON dynstat_eta_min              =  -3.4817328011115E+00
(PID.TID 0000.0001) %MON dynstat_eta_mean             =   1.5671691595405E-02
(PID.TID 0000.0001) %MON dynstat_eta_sd               =   1.5253196348564E-01
(PID.TID 0000.0001) %MON dynstat_eta_del2             =   3.7068623422021E-03
(PID.TID 0000.0001) %MON dynstat_uvel_max             =   1.9118958474696E+00
(PID.TID 0000.0001) %MON dynstat_uvel_min             =  -7.1809388017131E-01
(PID.TID 0000.0001) %MON dynstat_uvel_mean            =   2.6302448482968E-04
(PID.TID 0000.0001) %MON dynstat_uvel_sd              =   7.5832883564078E-03
(PID.TID 0000.0001) %MON dynstat_uvel_del2            =   1.3528376546750E-04
(PID.TID 0000.0001) %MON dynstat_vvel_max             =   1.4748603127701E+00
(PID.TID 0000.0001) %MON dynstat_vvel_min             =  -1.5493796608255E+00
(PID.TID 0000.0001) %MON dynstat_vvel_mean            =  -2.1622723977617E-05
(PID.TID 0000.0001) %MON dynstat_vvel_sd              =   7.4172553016066E-03
(PID.TID 0000.0001) %MON dynstat_vvel_del2            =   1.8494186763578E-04
(PID.TID 0000.0001) %MON dynstat_wvel_max             =   6.1178930355875E-05
(PID.TID 0000.0001) %MON dynstat_wvel_min             =  -5.6950706115662E-04
(PID.TID 0000.0001) %MON dynstat_wvel_mean            =  -4.9690650724245E-07
(PID.TID 0000.0001) %MON dynstat_wvel_sd              =   8.8929920302018E-06
(PID.TID 0000.0001) %MON dynstat_wvel_del2            =   7.8461733823647E-08
(PID.TID 0000.0001) %MON dynstat_theta_max            =   2.0326153259604E+01
(PID.TID 0000.0001) %MON dynstat_theta_min            =   1.6341661628627E+01
(PID.TID 0000.0001) %MON dynstat_theta_mean           =   1.9997699225780E+01
(PID.TID 0000.0001) %MON dynstat_theta_sd             =   1.8735308663215E-02
(PID.TID 0000.0001) %MON dynstat_theta_del2           =   2.8159132199723E-04
(PID.TID 0000.0001) %MON dynstat_salt_max             =   3.5070566996197E+01
(PID.TID 0000.0001) %MON dynstat_salt_min             =   3.3570810869214E+01
(PID.TID 0000.0001) %MON dynstat_salt_mean            =   3.4999867497267E+01
(PID.TID 0000.0001) %MON dynstat_salt_sd              =   7.1646978616288E-03
(PID.TID 0000.0001) %MON dynstat_salt_del2            =   1.8818680940624E-04
(PID.TID 0000.0001) %MON dynstat_sst_max              =   2.0326153259604E+01
(PID.TID 0000.0001) %MON dynstat_sst_min              =   1.6341661628627E+01
(PID.TID 0000.0001) %MON dynstat_sst_mean             =   1.9989708570685E+01
(PID.TID 0000.0001) %MON dynstat_sst_sd               =   1.2106499488647E-01
(PID.TID 0000.0001) %MON dynstat_sst_del2             =   3.1737686113947E-03
(PID.TID 0000.0001) %MON dynstat_sss_max              =   3.5070566996197E+01
(PID.TID 0000.0001) %MON dynstat_sss_min              =   3.3570810869214E+01
(PID.TID 0000.0001) %MON dynstat_sss_mean             =   3.4995435626657E+01
(PID.TID 0000.0001) %MON dynstat_sss_sd               =   6.0232950019605E-02
(PID.TID 0000.0001) %MON dynstat_sss_del2             =   2.3591753844313E-03
(PID.TID 0000.0001) %MON forcing_qnet_max             =   9.0256574938074E+04
(PID.TID 0000.0001) %MON forcing_qnet_min             =  -7.8493916525658E+03
(PID.TID 0000.0001) %MON forcing_qnet_mean            =  -1.9772944501580E+02
(PID.TID 0000.0001) %MON forcing_qnet_sd              =   1.7374375477355E+03
(PID.TID 0000.0001) %MON forcing_qnet_del2            =   3.1520105482485E+01
(PID.TID 0000.0001) %MON forcing_qsw_max              =   0.0000000000000E+00
(PID.TID 0000.0001) %MON forcing_qsw_min              =  -1.0700346532063E+02
(PID.TID 0000.0001) %MON forcing_qsw_mean             =  -2.2764854467179E+01
(PID.TID 0000.0001) %MON forcing_qsw_sd               =   3.0743111678323E+01
(PID.TID 0000.0001) %MON forcing_qsw_del2             =   1.5342298976734E-01
(PID.TID 0000.0001) %MON forcing_empmr_max            =   1.0212142951787E-02
(PID.TID 0000.0001) %MON forcing_empmr_min            =  -1.4675790071487E-01
(PID.TID 0000.0001) %MON forcing_empmr_mean           =  -5.7687377914709E-04
(PID.TID 0000.0001) %MON forcing_empmr_sd             =   6.4693830417990E-03
(PID.TID 0000.0001) %MON forcing_empmr_del2           =   2.5607158644255E-04
(PID.TID 0000.0001) %MON forcing_fu_max               =   9.9272094839640E-01
(PID.TID 0000.0001) %MON forcing_fu_min               =  -5.6038563001110E-01
(PID.TID 0000.0001) %MON forcing_fu_mean              =  -2.8012611453525E-03
(PID.TID 0000.0001) %MON forcing_fu_sd                =   1.1095755032612E-01
(PID.TID 0000.0001) %MON forcing_fu_del2              =   9.8071731664323E-04
(PID.TID 0000.0001) %MON forcing_fv_max               =   4.9698369790152E-01
(PID.TID 0000.0001) %MON forcing_fv_min               =  -5.6587891424128E-01
(PID.TID 0000.0001) %MON forcing_fv_mean              =  -7.3104753979059E-03
(PID.TID 0000.0001) %MON forcing_fv_sd                =   9.4267545798794E-02
(PID.TID 0000.0001) %MON forcing_fv_del2              =   8.4728764869870E-04
(PID.TID 0000.0001) %MON trAdv_CFL_u_max              =   6.1449823925925E-03
(PID.TID 0000.0001) %MON trAdv_CFL_v_max              =   8.4398763804420E-03
(PID.TID 0000.0001) %MON trAdv_CFL_w_max              =   7.2985017062579E-03
(PID.TID 0000.0001) %MON advcfl_uvel_max              =   6.3757264778579E-03
(PID.TID 0000.0001) %MON advcfl_vvel_max              =   4.8130071857259E-03
(PID.TID 0000.0001) %MON advcfl_wvel_max              =   6.0300747651878E-03
(PID.TID 0000.0001) %MON advcfl_W_hf_max              =   7.2985017062579E-03
(PID.TID 0000.0001) %MON pe_b_mean                    =   3.1321669402780E-05
(PID.TID 0000.0001) %MON ke_max                       =   1.5862958696449E+00
(PID.TID 0000.0001) %MON ke_mean                      =   5.1975302834506E-05
(PID.TID 0000.0001) %MON ke_vol                       =   1.3398079655472E+18
(PID.TID 0000.0001) %MON vort_r_min                   =  -5.2892880162138E-06
(PID.TID 0000.0001) %MON vort_r_max                   =   4.7898337345049E-06
(PID.TID 0000.0001) %MON vort_a_mean                  =  -2.0549865324846E-05
(PID.TID 0000.0001) %MON vort_a_sd                    =   7.5259269295131E-05
(PID.TID 0000.0001) %MON vort_p_mean                  =  -2.4783428864858E-05
(PID.TID 0000.0001) %MON vort_p_sd                    =   1.2810599714366E-04
(PID.TID 0000.0001) %MON surfExpan_theta_mean         =   1.8282160804901E-06
(PID.TID 0000.0001) %MON surfExpan_salt_mean          =   4.3301736353954E-07
(PID.TID 0000.0001) // =======================================================
(PID.TID 0000.0001) // End MONITOR dynamic field statistics
(PID.TID 0000.0001) // =======================================================
(PID.TID 0000.0001) // =======================================================
(PID.TID 0000.0001) // Begin MONITOR SEAICE statistics
(PID.TID 0000.0001) // =======================================================
(PID.TID 0000.0001) %MON seaice_tsnumber              =                     9
(PID.TID 0000.0001) %MON seaice_time_sec              =   8.1000000000000E+03
(PID.TID 0000.0001) %MON seaice_uice_max              =   1.7666174058401E+00
(PID.TID 0000.0001) %MON seaice_uice_min              =  -5.9625243545952E-01
(PID.TID 0000.0001) %MON seaice_uice_mean             =   7.0318534480659E-04
(PID.TID 0000.0001) %MON seaice_uice_sd               =   5.2215571829410E-02
(PID.TID 0000.0001) %MON seaice_uice_del2             =   1.4733614078596E-03
(PID.TID 0000.0001) %MON seaice_vice_max              =   1.4169225921305E+00
(PID.TID 0000.0001) %MON seaice_vice_min              =  -1.4926695091644E+00
(PID.TID 0000.0001) %MON seaice_vice_mean             =  -3.3545539947099E-03
(PID.TID 0000.0001) %MON seaice_vice_sd               =   5.0036831324876E-02
(PID.TID 0000.0001) %MON seaice_vice_del2             =   1.9987333154078E-03
(PID.TID 0000.0001) %MON seaice_area_max              =   9.9925669185578E-01
(PID.TID 0000.0001) %MON seaice_area_min              =   0.0000000000000E+00
(PID.TID 0000.0001) %MON seaice_area_mean             =   6.7930318541395E-02
(PID.TID 0000.0001) %MON seaice_area_sd               =   2.3388775000276E-01
(PID.TID 0000.0001) %MON seaice_area_del2             =   1.7587054775090E-03
(PID.TID 0000.0001) %MON seaice_heff_max              =   8.4141122226275E+00
(PID.TID 0000.0001) %MON seaice_heff_min              =   0.0000000000000E+00
(PID.TID 0000.0001) %MON seaice_heff_mean             =   2.0425839172106E-01
(PID.TID 0000.0001) %MON seaice_heff_sd               =   9.7264297144233E-01
(PID.TID 0000.0001) %MON seaice_heff_del2             =   6.2153677084624E-03
(PID.TID 0000.0001) %MON seaice_hsnow_max             =   2.0258765266191E+00
(PID.TID 0000.0001) %MON seaice_hsnow_min             =   0.0000000000000E+00
(PID.TID 0000.0001) %MON seaice_hsnow_mean            =   2.2650647753777E-02
(PID.TID 0000.0001) %MON seaice_hsnow_sd              =   1.1911896731188E-01
(PID.TID 0000.0001) %MON seaice_hsnow_del2            =   1.4604076616392E-03
(PID.TID 0000.0001) // =======================================================
(PID.TID 0000.0001) // End MONITOR SEAICE statistics
(PID.TID 0000.0001) // =======================================================
 Computing Diagnostic #    211  SIarea       Counter:       1   Parms: SM      M1      
 Computing Diagnostic #    214  SIheff       Counter:       1   Parms: SM      M1      
 Computing Diagnostic #    216  SIhsnow      Counter:       1   Parms: SM      M1      
 Computing Diagnostic #     83  sIceLoad     Counter:       1   Parms: SM      U1      
 Computing Diagnostic #    220  SIuice       Counter:       1   Parms: UU      M1      
           Vector  Mate for  SIuice       Diagnostic #    221  SIvice   exists 
 Computing Diagnostic #    221  SIvice       Counter:       1   Parms: VV      M1      
           Vector  Mate for  SIvice       Diagnostic #    220  SIuice   exists 
 Computing Diagnostic #    222  SItaux       Counter:       1   Parms: UU      U1      
           Vector  Mate for  SItaux       Diagnostic #    223  SItauy   exists 
 Computing Diagnostic #    223  SItauy       Counter:       1   Parms: VV      U1      
           Vector  Mate for  SItauy       Diagnostic #    222  SItaux   exists 
 Computing Diagnostic #    284  CPLoWGHT     Counter:       1   Parms: SM      M1      
 Computing Diagnostic #    282  SIareaN      Counter:       1   Parms: SM      MX      
 Computing Diagnostic #    281  SIheffN      Counter:       1   Parms: SM      MX      
 Computing Diagnostic #    283  SIhsnowN     Counter:       1   Parms: SM      MX      
 Computing Diagnostic #    287  SIqSnow      Counter:       1   Parms: SM      MX      
 Computing Diagnostic #    288  SImeltPd     Counter:       1   Parms: SM      MX      
 Computing Diagnostic #    285  SItIces      Counter:       1   Parms: SM      MX      
 Computing Diagnostic #    289  SIiceAge     Counter:       1   Parms: SM      MX      
 Computing Diagnostic #    290  SI_dArea     Counter:       1   Parms: SM      MX      
 Computing Diagnostic #    291  SI_dHeff     Counter:       1   Parms: SM      MX      
 Computing Diagnostic #    292  SI_dHsnw     Counter:       1   Parms: SM      MX      
 Computing Diagnostic #    295  SI_dQSnw     Counter:       1   Parms: SM      MX      
 Computing Diagnostic #    286  SIqIce       Counter:       1   Parms: SM      MX      
 Computing Diagnostic #    294  SI_dQIce     Counter:       1   Parms: SM      MX      
 SEAICE_LSR: Residual Initial ipass,Uice,Vice=    1  6.94759720E-03  2.76128532E-03
 SEAICE_LSR (ipass=   1) iters,dU,Resid=     8  2.74154485E-05  7.18560281E-06
 SEAICE_LSR (ipass=   1) iters,dV,Resid=     8  9.50277949E-06  3.71162614E-06
 SEAICE_LSR: Residual Initial ipass,Uice,Vice=    2  3.73355232E-03  1.43894965E-03
 SEAICE_LSR (ipass=   2) iters,dU,Resid=     6  9.12108344E-05  1.11181112E-05
 SEAICE_LSR (ipass=   2) iters,dV,Resid=     6  3.21628425E-05  4.47389845E-06
 cg2d: Sum(rhs),rhsMax =  -1.73516795008724E+01  8.01948489721241E+01
(PID.TID 0000.0001)      cg2d_init_res =   4.80463183383238E-01
(PID.TID 0000.0001)      cg2d_iters(min,last) =      -1      10
(PID.TID 0000.0001)      cg2d_last_res =   6.13327246049316E-08
(PID.TID 0000.0001) // =======================================================
(PID.TID 0000.0001) // Begin MONITOR dynamic field statistics
(PID.TID 0000.0001) // =======================================================
(PID.TID 0000.0001) %MON time_tsnumber                =                    10
(PID.TID 0000.0001) %MON time_secondsf                =   9.0000000000000E+03
(PID.TID 0000.0001) %MON dynstat_eta_max              =   3.6755551000929E+00
(PID.TID 0000.0001) %MON dynstat_eta_min              =  -3.5167455465198E+00
(PID.TID 0000.0001) %MON dynstat_eta_mean             =   1.6169223509239E-02
(PID.TID 0000.0001) %MON dynstat_eta_sd               =   1.4118477283078E-01
(PID.TID 0000.0001) %MON dynstat_eta_del2             =   3.3098580422733E-03
(PID.TID 0000.0001) %MON dynstat_uvel_max             =   1.9934015997051E+00
(PID.TID 0000.0001) %MON dynstat_uvel_min             =  -7.5353103968664E-01
(PID.TID 0000.0001) %MON dynstat_uvel_mean            =   2.9200218440174E-04
(PID.TID 0000.0001) %MON dynstat_uvel_sd              =   7.8679112699792E-03
(PID.TID 0000.0001) %MON dynstat_uvel_del2            =   1.3752086412661E-04
(PID.TID 0000.0001) %MON dynstat_vvel_max             =   1.4831180600136E+00
(PID.TID 0000.0001) %MON dynstat_vvel_min             =  -1.5929961172855E+00
(PID.TID 0000.0001) %MON dynstat_vvel_mean            =  -2.5211382882677E-05
(PID.TID 0000.0001) %MON dynstat_vvel_sd              =   7.3914682852135E-03
(PID.TID 0000.0001) %MON dynstat_vvel_del2            =   1.8204528738765E-04
(PID.TID 0000.0001) %MON dynstat_wvel_max             =   6.9879314230200E-05
(PID.TID 0000.0001) %MON dynstat_wvel_min             =  -5.6534656177688E-04
(PID.TID 0000.0001) %MON dynstat_wvel_mean            =  -4.2247126165492E-07
(PID.TID 0000.0001) %MON dynstat_wvel_sd              =   7.9852099568412E-06
(PID.TID 0000.0001) %MON dynstat_wvel_del2            =   7.3599928113522E-08
(PID.TID 0000.0001) %MON dynstat_theta_max            =   2.0360280878188E+01
(PID.TID 0000.0001) %MON dynstat_theta_min            =   1.6317754644516E+01
(PID.TID 0000.0001) %MON dynstat_theta_mean           =   1.9997711229391E+01
(PID.TID 0000.0001) %MON dynstat_theta_sd             =   1.8697725674451E-02
(PID.TID 0000.0001) %MON dynstat_theta_del2           =   2.8358414726260E-04
(PID.TID 0000.0001) %MON dynstat_salt_max             =   3.5070571458507E+01
(PID.TID 0000.0001) %MON dynstat_salt_min             =   3.3430534489879E+01
(PID.TID 0000.0001) %MON dynstat_salt_mean            =   3.4999861298099E+01
(PID.TID 0000.0001) %MON dynstat_salt_sd              =   7.8142133004107E-03
(PID.TID 0000.0001) %MON dynstat_salt_del2            =   2.0624300476736E-04
(PID.TID 0000.0001) %MON dynstat_sst_max              =   2.0360280878188E+01
(PID.TID 0000.0001) %MON dynstat_sst_min              =   1.6317754644516E+01
(PID.TID 0000.0001) %MON dynstat_sst_mean             =   1.9992494752508E+01
(PID.TID 0000.0001) %MON dynstat_sst_sd               =   1.2214938849905E-01
(PID.TID 0000.0001) %MON dynstat_sst_del2             =   3.1973501847939E-03
(PID.TID 0000.0001) %MON dynstat_sss_max              =   3.5070571458507E+01
(PID.TID 0000.0001) %MON dynstat_sss_min              =   3.3430534489879E+01
(PID.TID 0000.0001) %MON dynstat_sss_mean             =   3.4995084424139E+01
(PID.TID 0000.0001) %MON dynstat_sss_sd               =   6.5888925828049E-02
(PID.TID 0000.0001) %MON dynstat_sss_del2             =   2.5863983474673E-03
(PID.TID 0000.0001) %MON forcing_qnet_max             =   2.7523261743048E+04
(PID.TID 0000.0001) %MON forcing_qnet_min             =  -7.7453215166765E+03
(PID.TID 0000.0001) %MON forcing_qnet_mean            =  -2.0270819157702E+02
(PID.TID 0000.0001) %MON forcing_qnet_sd              =   9.8375392306256E+02
(PID.TID 0000.0001) %MON forcing_qnet_del2            =   1.7648308901705E+01
(PID.TID 0000.0001) %MON forcing_qsw_max              =   0.0000000000000E+00
(PID.TID 0000.0001) %MON forcing_qsw_min              =  -1.0809352429182E+02
(PID.TID 0000.0001) %MON forcing_qsw_mean             =  -2.2675255550231E+01
(PID.TID 0000.0001) %MON forcing_qsw_sd               =   3.0691547319238E+01
(PID.TID 0000.0001) %MON forcing_qsw_del2             =   1.5622605052823E-01
(PID.TID 0000.0001) %MON forcing_empmr_max            =   1.0106851346791E-02
(PID.TID 0000.0001) %MON forcing_empmr_min            =  -1.4524587988853E-01
(PID.TID 0000.0001) %MON forcing_empmr_mean           =  -5.7216170090821E-04
(PID.TID 0000.0001) %MON forcing_empmr_sd             =   6.4027945812194E-03
(PID.TID 0000.0001) %MON forcing_empmr_del2           =   2.5343952212870E-04
(PID.TID 0000.0001) %MON forcing_fu_max               =   1.0078232761726E+00
(PID.TID 0000.0001) %MON forcing_fu_min               =  -5.6336876629880E-01
(PID.TID 0000.0001) %MON forcing_fu_mean              =  -2.5864740824364E-03
(PID.TID 0000.0001) %MON forcing_fu_sd                =   1.1031291801182E-01
(PID.TID 0000.0001) %MON forcing_fu_del2              =   9.7065868038816E-04
(PID.TID 0000.0001) %MON forcing_fv_max               =   4.9413002294333E-01
(PID.TID 0000.0001) %MON forcing_fv_min               =  -5.7693731882423E-01
(PID.TID 0000.0001) %MON forcing_fv_mean              =  -6.9125395859328E-03
(PID.TID 0000.0001) %MON forcing_fv_sd                =   9.3685935855423E-02
(PID.TID 0000.0001) %MON forcing_fv_del2              =   8.4147111294005E-04
(PID.TID 0000.0001) %MON trAdv_CFL_u_max              =   6.4393063177080E-03
(PID.TID 0000.0001) %MON trAdv_CFL_v_max              =   8.7173856818687E-03
(PID.TID 0000.0001) %MON trAdv_CFL_w_max              =   7.2455339242869E-03
(PID.TID 0000.0001) %MON advcfl_uvel_max              =   6.6475291408080E-03
(PID.TID 0000.0001) %MON advcfl_vvel_max              =   4.8399552271621E-03
(PID.TID 0000.0001) %MON advcfl_wvel_max              =   5.9860224188141E-03
(PID.TID 0000.0001) %MON advcfl_W_hf_max              =   7.2455339242869E-03
(PID.TID 0000.0001) %MON pe_b_mean                    =   2.6902803083755E-05
(PID.TID 0000.0001) %MON ke_max                       =   1.6842975023111E+00
(PID.TID 0000.0001) %MON ke_mean                      =   5.3826099504048E-05
(PID.TID 0000.0001) %MON ke_vol                       =   1.3398081480835E+18
(PID.TID 0000.0001) %MON vort_r_min                   =  -6.0471998960668E-06
(PID.TID 0000.0001) %MON vort_r_max                   =   4.7272688957811E-06
(PID.TID 0000.0001) %MON vort_a_mean                  =  -2.0549865324846E-05
(PID.TID 0000.0001) %MON vort_a_sd                    =   7.5259268392187E-05
(PID.TID 0000.0001) %MON vort_p_mean                  =  -2.4783424041903E-05
(PID.TID 0000.0001) %MON vort_p_sd                    =   1.2810600639005E-04
(PID.TID 0000.0001) %MON surfExpan_theta_mean         =   1.8079510029211E-06
(PID.TID 0000.0001) %MON surfExpan_salt_mean          =   4.6541076483029E-07
(PID.TID 0000.0001) // =======================================================
(PID.TID 0000.0001) // End MONITOR dynamic field statistics
(PID.TID 0000.0001) // =======================================================
(PID.TID 0000.0001) // =======================================================
(PID.TID 0000.0001) // Begin MONITOR SEAICE statistics
(PID.TID 0000.0001) // =======================================================
(PID.TID 0000.0001) %MON seaice_tsnumber              =                    10
(PID.TID 0000.0001) %MON seaice_time_sec              =   9.0000000000000E+03
(PID.TID 0000.0001) %MON seaice_uice_max              =   1.8666312267031E+00
(PID.TID 0000.0001) %MON seaice_uice_min              =  -6.2976483031304E-01
(PID.TID 0000.0001) %MON seaice_uice_mean             =   7.5274973030706E-04
(PID.TID 0000.0001) %MON seaice_uice_sd               =   5.4654533933494E-02
(PID.TID 0000.0001) %MON seaice_uice_del2             =   1.5261525484128E-03
(PID.TID 0000.0001) %MON seaice_vice_max              =   1.4519911051693E+00
(PID.TID 0000.0001) %MON seaice_vice_min              =  -1.5756792772073E+00
(PID.TID 0000.0001) %MON seaice_vice_mean             =  -3.5615777173883E-03
(PID.TID 0000.0001) %MON seaice_vice_sd               =   5.1705201462819E-02
(PID.TID 0000.0001) %MON seaice_vice_del2             =   2.0247540007592E-03
(PID.TID 0000.0001) %MON seaice_area_max              =   9.9919615224485E-01
(PID.TID 0000.0001) %MON seaice_area_min              =   0.0000000000000E+00
(PID.TID 0000.0001) %MON seaice_area_mean             =   6.7836136379912E-02
(PID.TID 0000.0001) %MON seaice_area_sd               =   2.3362887336064E-01
(PID.TID 0000.0001) %MON seaice_area_del2             =   1.7537102537547E-03
(PID.TID 0000.0001) %MON seaice_heff_max              =   8.4115115682226E+00
(PID.TID 0000.0001) %MON seaice_heff_min              =   0.0000000000000E+00
(PID.TID 0000.0001) %MON seaice_heff_mean             =   2.0408488109665E-01
(PID.TID 0000.0001) %MON seaice_heff_sd               =   9.7217441780827E-01
(PID.TID 0000.0001) %MON seaice_heff_del2             =   6.2137049650779E-03
(PID.TID 0000.0001) %MON seaice_hsnow_max             =   2.0251189066276E+00
(PID.TID 0000.0001) %MON seaice_hsnow_min             =   0.0000000000000E+00
(PID.TID 0000.0001) %MON seaice_hsnow_mean            =   2.2632856267810E-02
(PID.TID 0000.0001) %MON seaice_hsnow_sd              =   1.1906016523477E-01
(PID.TID 0000.0001) %MON seaice_hsnow_del2            =   1.4596654643603E-03
(PID.TID 0000.0001) // =======================================================
(PID.TID 0000.0001) // End MONITOR SEAICE statistics
(PID.TID 0000.0001) // =======================================================
 SEAICE_LSR: Residual Initial ipass,Uice,Vice=    1  5.31711788E-03  2.65381982E-03
 SEAICE_LSR (ipass=   1) iters,dU,Resid=     8  3.50663324E-05  7.32236622E-06
 SEAICE_LSR (ipass=   1) iters,dV,Resid=     8  8.54636206E-06  2.59373529E-06
 SEAICE_LSR: Residual Initial ipass,Uice,Vice=    2  2.80268777E-03  1.29777935E-03
 SEAICE_LSR (ipass=   2) iters,dU,Resid=     6  9.69419531E-05  9.93811056E-06
 SEAICE_LSR (ipass=   2) iters,dV,Resid=     6  3.15722198E-05  2.67579764E-06
 cg2d: Sum(rhs),rhsMax =  -1.95912463978484E+01  7.32026871383265E+01
(PID.TID 0000.0001)      cg2d_init_res =   5.19979124310321E-01
(PID.TID 0000.0001)      cg2d_iters(min,last) =      -1      10
(PID.TID 0000.0001)      cg2d_last_res =   7.46897053869027E-08
(PID.TID 0000.0001) // =======================================================
(PID.TID 0000.0001) // Begin MONITOR dynamic field statistics
(PID.TID 0000.0001) // =======================================================
(PID.TID 0000.0001) %MON time_tsnumber                =                    11
(PID.TID 0000.0001) %MON time_secondsf                =   9.9000000000000E+03
(PID.TID 0000.0001) %MON dynstat_eta_max              =   2.9499638917911E+00
(PID.TID 0000.0001) %MON dynstat_eta_min              =  -3.2457112811979E+00
(PID.TID 0000.0001) %MON dynstat_eta_mean             =   1.6664422330033E-02
(PID.TID 0000.0001) %MON dynstat_eta_sd               =   1.3053415317365E-01
(PID.TID 0000.0001) %MON dynstat_eta_del2             =   2.9800130430545E-03
(PID.TID 0000.0001) %MON dynstat_uvel_max             =   2.0479308790936E+00
(PID.TID 0000.0001) %MON dynstat_uvel_min             =  -7.7895925342070E-01
(PID.TID 0000.0001) %MON dynstat_uvel_mean            =   3.1900890083346E-04
(PID.TID 0000.0001) %MON dynstat_uvel_sd              =   8.1016902820745E-03
(PID.TID 0000.0001) %MON dynstat_uvel_del2            =   1.3892258681282E-04
(PID.TID 0000.0001) %MON dynstat_vvel_max             =   1.4612456321629E+00
(PID.TID 0000.0001) %MON dynstat_vvel_min             =  -1.6067276729725E+00
(PID.TID 0000.0001) %MON dynstat_vvel_mean            =  -2.7684621071241E-05
(PID.TID 0000.0001) %MON dynstat_vvel_sd              =   7.3566151110963E-03
(PID.TID 0000.0001) %MON dynstat_vvel_del2            =   1.7659186756873E-04
(PID.TID 0000.0001) %MON dynstat_wvel_max             =   8.1895426244302E-05
(PID.TID 0000.0001) %MON dynstat_wvel_min             =  -5.5388774756630E-04
(PID.TID 0000.0001) %MON dynstat_wvel_mean            =  -3.5677613572214E-07
(PID.TID 0000.0001) %MON dynstat_wvel_sd              =   7.6388285023872E-06
(PID.TID 0000.0001) %MON dynstat_wvel_del2            =   7.3746972648201E-08
(PID.TID 0000.0001) %MON dynstat_theta_max            =   2.0394010820459E+01
(PID.TID 0000.0001) %MON dynstat_theta_min            =   1.6293477414492E+01
(PID.TID 0000.0001) %MON dynstat_theta_mean           =   1.9997720234332E+01
(PID.TID 0000.0001) %MON dynstat_theta_sd             =   1.8723421321543E-02
(PID.TID 0000.0001) %MON dynstat_theta_del2           =   2.8566730192029E-04
(PID.TID 0000.0001) %MON dynstat_salt_max             =   3.5070570390372E+01
(PID.TID 0000.0001) %MON dynstat_salt_min             =   3.3293619362200E+01
(PID.TID 0000.0001) %MON dynstat_salt_mean            =   3.4999854583510E+01
(PID.TID 0000.0001) %MON dynstat_salt_sd              =   8.4570875526023E-03
(PID.TID 0000.0001) %MON dynstat_salt_del2            =   2.2392648022896E-04
(PID.TID 0000.0001) %MON dynstat_sst_max              =   2.0394010820459E+01
(PID.TID 0000.0001) %MON dynstat_sst_min              =   1.6293477414492E+01
(PID.TID 0000.0001) %MON dynstat_sst_mean             =   1.9994909989516E+01
(PID.TID 0000.0001) %MON dynstat_sst_sd               =   1.2367367951018E-01
(PID.TID 0000.0001) %MON dynstat_sst_del2             =   3.2231474909629E-03
(PID.TID 0000.0001) %MON dynstat_sss_max              =   3.5070570390372E+01
(PID.TID 0000.0001) %MON dynstat_sss_min              =   3.3293619362200E+01
(PID.TID 0000.0001) %MON dynstat_sss_mean             =   3.4994700569566E+01
(PID.TID 0000.0001) %MON dynstat_sss_sd               =   7.1463527663058E-02
(PID.TID 0000.0001) %MON dynstat_sss_del2             =   2.8089109272911E-03
(PID.TID 0000.0001) %MON forcing_qnet_max             =   1.0667654462362E+05
(PID.TID 0000.0001) %MON forcing_qnet_min             =  -9.2413535156250E+03
(PID.TID 0000.0001) %MON forcing_qnet_mean            =  -1.5178222030703E+02
(PID.TID 0000.0001) %MON forcing_qnet_sd              =   2.3965704423308E+03
(PID.TID 0000.0001) %MON forcing_qnet_del2            =   6.4883869833480E+01
(PID.TID 0000.0001) %MON forcing_qsw_max              =   0.0000000000000E+00
(PID.TID 0000.0001) %MON forcing_qsw_min              =  -1.0872608909009E+02
(PID.TID 0000.0001) %MON forcing_qsw_mean             =  -2.2516272115223E+01
(PID.TID 0000.0001) %MON forcing_qsw_sd               =   3.0580075194330E+01
(PID.TID 0000.0001) %MON forcing_qsw_del2             =   1.5893273500119E-01
(PID.TID 0000.0001) %MON forcing_empmr_max            =   1.0002689436078E-02
(PID.TID 0000.0001) %MON forcing_empmr_min            =  -1.4375060796738E-01
(PID.TID 0000.0001) %MON forcing_empmr_mean           =  -5.6947864391313E-04
(PID.TID 0000.0001) %MON forcing_empmr_sd             =   6.3373895292339E-03
(PID.TID 0000.0001) %MON forcing_empmr_del2           =   2.5082966886390E-04
(PID.TID 0000.0001) %MON forcing_fu_max               =   1.0120880552445E+00
(PID.TID 0000.0001) %MON forcing_fu_min               =  -5.7169716162929E-01
(PID.TID 0000.0001) %MON forcing_fu_mean              =  -2.3716199187940E-03
(PID.TID 0000.0001) %MON forcing_fu_sd                =   1.0955440888544E-01
(PID.TID 0000.0001) %MON forcing_fu_del2              =   9.6003944644093E-04
(PID.TID 0000.0001) %MON forcing_fv_max               =   4.8858434735111E-01
(PID.TID 0000.0001) %MON forcing_fv_min               =  -5.7716517502362E-01
(PID.TID 0000.0001) %MON forcing_fv_mean              =  -6.5023067615788E-03
(PID.TID 0000.0001) %MON forcing_fv_sd                =   9.2945690041619E-02
(PID.TID 0000.0001) %MON forcing_fv_del2              =   8.3376525585927E-04
(PID.TID 0000.0001) %MON trAdv_CFL_u_max              =   6.6463294693271E-03
(PID.TID 0000.0001) %MON trAdv_CFL_v_max              =   8.8447763348410E-03
(PID.TID 0000.0001) %MON trAdv_CFL_w_max              =   7.1002500804645E-03
(PID.TID 0000.0001) %MON advcfl_uvel_max              =   6.8293715622327E-03
(PID.TID 0000.0001) %MON advcfl_vvel_max              =   4.8149923402785E-03
(PID.TID 0000.0001) %MON advcfl_wvel_max              =   5.8646937977608E-03
(PID.TID 0000.0001) %MON advcfl_W_hf_max              =   7.1002500804645E-03
(PID.TID 0000.0001) %MON pe_b_mean                    =   2.3069167111864E-05
(PID.TID 0000.0001) %MON ke_max                       =   1.7259491419903E+00
(PID.TID 0000.0001) %MON ke_mean                      =   5.5310412889813E-05
(PID.TID 0000.0001) %MON ke_vol                       =   1.3398083291287E+18
(PID.TID 0000.0001) %MON vort_r_min                   =  -6.7595769287494E-06
(PID.TID 0000.0001) %MON vort_r_max                   =   4.5561320847106E-06
(PID.TID 0000.0001) %MON vort_a_mean                  =  -2.0549865324846E-05
(PID.TID 0000.0001) %MON vort_a_sd                    =   7.5259267582087E-05
(PID.TID 0000.0001) %MON vort_p_mean                  =  -2.4783419514918E-05
(PID.TID 0000.0001) %MON vort_p_sd                    =   1.2810602140058E-04
(PID.TID 0000.0001) %MON surfExpan_theta_mean         =   1.7598892040299E-06
(PID.TID 0000.0001) %MON surfExpan_salt_mean          =   4.9618064574978E-07
(PID.TID 0000.0001) // =======================================================
(PID.TID 0000.0001) // End MONITOR dynamic field statistics
(PID.TID 0000.0001) // =======================================================
(PID.TID 0000.0001) // =======================================================
(PID.TID 0000.0001) // Begin MONITOR SEAICE statistics
(PID.TID 0000.0001) // =======================================================
(PID.TID 0000.0001) %MON seaice_tsnumber              =                    11
(PID.TID 0000.0001) %MON seaice_time_sec              =   9.9000000000000E+03
(PID.TID 0000.0001) %MON seaice_uice_max              =   1.9374066562790E+00
(PID.TID 0000.0001) %MON seaice_uice_min              =  -6.4813235241252E-01
(PID.TID 0000.0001) %MON seaice_uice_mean             =   7.6972622371638E-04
(PID.TID 0000.0001) %MON seaice_uice_sd               =   5.6584918130510E-02
(PID.TID 0000.0001) %MON seaice_uice_del2             =   1.5639795968106E-03
(PID.TID 0000.0001) %MON seaice_vice_max              =   1.4556472586740E+00
(PID.TID 0000.0001) %MON seaice_vice_min              =  -1.6271804998173E+00
(PID.TID 0000.0001) %MON seaice_vice_mean             =  -3.7502791630467E-03
(PID.TID 0000.0001) %MON seaice_vice_sd               =   5.2693544996266E-02
(PID.TID 0000.0001) %MON seaice_vice_del2             =   2.0143317412768E-03
(PID.TID 0000.0001) %MON seaice_area_max              =   9.9912803865243E-01
(PID.TID 0000.0001) %MON seaice_area_min              =   0.0000000000000E+00
(PID.TID 0000.0001) %MON seaice_area_mean             =   6.7741926236523E-02
(PID.TID 0000.0001) %MON seaice_area_sd               =   2.3337036823583E-01
(PID.TID 0000.0001) %MON seaice_area_del2             =   1.7488720190160E-03
(PID.TID 0000.0001) %MON seaice_heff_max              =   8.4089101013034E+00
(PID.TID 0000.0001) %MON seaice_heff_min              =   0.0000000000000E+00
(PID.TID 0000.0001) %MON seaice_heff_mean             =   2.0391099150327E-01
(PID.TID 0000.0001) %MON seaice_heff_sd               =   9.7170443274117E-01
(PID.TID 0000.0001) %MON seaice_heff_del2             =   6.2120926515312E-03
(PID.TID 0000.0001) %MON seaice_hsnow_max             =   2.0243626936162E+00
(PID.TID 0000.0001) %MON seaice_hsnow_min             =   0.0000000000000E+00
(PID.TID 0000.0001) %MON seaice_hsnow_mean            =   2.2614780973138E-02
(PID.TID 0000.0001) %MON seaice_hsnow_sd              =   1.1900122999698E-01
(PID.TID 0000.0001) %MON seaice_hsnow_del2            =   1.4589265892179E-03
(PID.TID 0000.0001) // =======================================================
(PID.TID 0000.0001) // End MONITOR SEAICE statistics
(PID.TID 0000.0001) // =======================================================
 SEAICE_LSR: Residual Initial ipass,Uice,Vice=    1  4.11943918E-03  2.68637684E-03
 SEAICE_LSR (ipass=   1) iters,dU,Resid=     8  4.06092399E-05  8.79911707E-06
 SEAICE_LSR (ipass=   1) iters,dV,Resid=     8  1.34648550E-05  1.57907260E-06
 SEAICE_LSR: Residual Initial ipass,Uice,Vice=    2  2.18651310E-03  1.25620102E-03
 SEAICE_LSR (ipass=   2) iters,dU,Resid=     6  9.47159041E-05  1.08134678E-05
 SEAICE_LSR (ipass=   2) iters,dV,Resid=     6  4.48072413E-05  3.44121539E-06
 cg2d: Sum(rhs),rhsMax =  -2.40097770638867E+01  6.14916598211277E+01
(PID.TID 0000.0001)      cg2d_init_res =   6.09982640473101E-01
(PID.TID 0000.0001)      cg2d_iters(min,last) =      -1      10
(PID.TID 0000.0001)      cg2d_last_res =   9.74651845309774E-08
(PID.TID 0000.0001) // =======================================================
(PID.TID 0000.0001) // Begin MONITOR dynamic field statistics
(PID.TID 0000.0001) // =======================================================
(PID.TID 0000.0001) %MON time_tsnumber                =                    12
(PID.TID 0000.0001) %MON time_secondsf                =   1.0800000000000E+04
(PID.TID 0000.0001) %MON dynstat_eta_max              =   2.8270011189455E+00
(PID.TID 0000.0001) %MON dynstat_eta_min              =  -2.7583017488388E+00
(PID.TID 0000.0001) %MON dynstat_eta_mean             =   1.7155584399071E-02
(PID.TID 0000.0001) %MON dynstat_eta_sd               =   1.2155979934804E-01
(PID.TID 0000.0001) %MON dynstat_eta_del2             =   2.7692343452103E-03
(PID.TID 0000.0001) %MON dynstat_uvel_max             =   2.0767516841553E+00
(PID.TID 0000.0001) %MON dynstat_uvel_min             =  -7.9461801897197E-01
(PID.TID 0000.0001) %MON dynstat_uvel_mean            =   3.4425476658834E-04
(PID.TID 0000.0001) %MON dynstat_uvel_sd              =   8.2540244495023E-03
(PID.TID 0000.0001) %MON dynstat_uvel_del2            =   1.3914543546727E-04
(PID.TID 0000.0001) %MON dynstat_vvel_max             =   1.4110762463721E+00
(PID.TID 0000.0001) %MON dynstat_vvel_min             =  -1.5913562885962E+00
(PID.TID 0000.0001) %MON dynstat_vvel_mean            =  -2.8214039451992E-05
(PID.TID 0000.0001) %MON dynstat_vvel_sd              =   7.3131008352716E-03
(PID.TID 0000.0001) %MON dynstat_vvel_del2            =   1.6912692965261E-04
(PID.TID 0000.0001) %MON dynstat_wvel_max             =   1.4077610573744E-04
(PID.TID 0000.0001) %MON dynstat_wvel_min             =  -5.4813291355627E-04
(PID.TID 0000.0001) %MON dynstat_wvel_mean            =  -3.0602873854126E-07
(PID.TID 0000.0001) %MON dynstat_wvel_sd              =   7.7624913011125E-06
(PID.TID 0000.0001) %MON dynstat_wvel_del2            =   7.6793219862191E-08
(PID.TID 0000.0001) %MON dynstat_theta_max            =   2.0427346761501E+01
(PID.TID 0000.0001) %MON dynstat_theta_min            =   1.6269251633502E+01
(PID.TID 0000.0001) %MON dynstat_theta_mean           =   1.9997731229828E+01
(PID.TID 0000.0001) %MON dynstat_theta_sd             =   1.8739698920584E-02
(PID.TID 0000.0001) %MON dynstat_theta_del2           =   2.8750527145050E-04
(PID.TID 0000.0001) %MON dynstat_salt_max             =   3.5070567361273E+01
(PID.TID 0000.0001) %MON dynstat_salt_min             =   3.3159974536439E+01
(PID.TID 0000.0001) %MON dynstat_salt_mean            =   3.4999848486131E+01
(PID.TID 0000.0001) %MON dynstat_salt_sd              =   9.0848028514588E-03
(PID.TID 0000.0001) %MON dynstat_salt_del2            =   2.4119419253319E-04
(PID.TID 0000.0001) %MON dynstat_sst_max              =   2.0427346761501E+01
(PID.TID 0000.0001) %MON dynstat_sst_min              =   1.6269251633502E+01
(PID.TID 0000.0001) %MON dynstat_sst_mean             =   1.9997275259327E+01
(PID.TID 0000.0001) %MON dynstat_sst_sd               =   1.2492433534009E-01
(PID.TID 0000.0001) %MON dynstat_sst_del2             =   3.2451066550294E-03
(PID.TID 0000.0001) %MON dynstat_sss_max              =   3.5070567361273E+01
(PID.TID 0000.0001) %MON dynstat_sss_min              =   3.3159974536439E+01
(PID.TID 0000.0001) %MON dynstat_sss_mean             =   3.4994346523904E+01
(PID.TID 0000.0001) %MON dynstat_sss_sd               =   7.6897489022381E-02
(PID.TID 0000.0001) %MON dynstat_sss_del2             =   3.0260883497272E-03
(PID.TID 0000.0001) %MON forcing_qnet_max             =   1.7192837212242E+04
(PID.TID 0000.0001) %MON forcing_qnet_min             =  -7.5446824124084E+03
(PID.TID 0000.0001) %MON forcing_qnet_mean            =  -1.8525242121523E+02
(PID.TID 0000.0001) %MON forcing_qnet_sd              =   8.7441160238431E+02
(PID.TID 0000.0001) %MON forcing_qnet_del2            =   1.7851459279641E+01
(PID.TID 0000.0001) %MON forcing_qsw_max              =   0.0000000000000E+00
(PID.TID 0000.0001) %MON forcing_qsw_min              =  -1.0889860521379E+02
(PID.TID 0000.0001) %MON forcing_qsw_mean             =  -2.2290411773014E+01
(PID.TID 0000.0001) %MON forcing_qsw_sd               =   3.0409080641436E+01
(PID.TID 0000.0001) %MON forcing_qsw_del2             =   1.6151883411778E-01
(PID.TID 0000.0001) %MON forcing_empmr_max            =   9.8995631560683E-03
(PID.TID 0000.0001) %MON forcing_empmr_min            =  -1.4227046072483E-01
(PID.TID 0000.0001) %MON forcing_empmr_mean           =  -5.6483637939380E-04
(PID.TID 0000.0001) %MON forcing_empmr_sd             =   6.2726282333073E-03
(PID.TID 0000.0001) %MON forcing_empmr_del2           =   2.4825003298576E-04
(PID.TID 0000.0001) %MON forcing_fu_max               =   1.0125641859550E+00
(PID.TID 0000.0001) %MON forcing_fu_min               =  -5.7882898927054E-01
(PID.TID 0000.0001) %MON forcing_fu_mean              =  -2.1644414586109E-03
(PID.TID 0000.0001) %MON forcing_fu_sd                =   1.0873508019654E-01
(PID.TID 0000.0001) %MON forcing_fu_del2              =   9.4963987683609E-04
(PID.TID 0000.0001) %MON forcing_fv_max               =   4.8191627158265E-01
(PID.TID 0000.0001) %MON forcing_fv_min               =  -5.8108221564504E-01
(PID.TID 0000.0001) %MON forcing_fv_mean              =  -6.0737041880768E-03
(PID.TID 0000.0001) %MON forcing_fv_sd                =   9.2144123930553E-02
(PID.TID 0000.0001) %MON forcing_fv_del2              =   8.2607909754957E-04
(PID.TID 0000.0001) %MON trAdv_CFL_u_max              =   6.7685084105141E-03
(PID.TID 0000.0001) %MON trAdv_CFL_v_max              =   8.8231041925578E-03
(PID.TID 0000.0001) %MON trAdv_CFL_w_max              =   6.8885385366010E-03
(PID.TID 0000.0001) %MON advcfl_uvel_max              =   6.9254822212877E-03
(PID.TID 0000.0001) %MON advcfl_vvel_max              =   4.7689278457930E-03
(PID.TID 0000.0001) %MON advcfl_wvel_max              =   5.6876918105008E-03
(PID.TID 0000.0001) %MON advcfl_W_hf_max              =   6.8885385366010E-03
(PID.TID 0000.0001) %MON pe_b_mean                    =   2.0077397935899E-05
(PID.TID 0000.0001) %MON ke_max                       =   1.7108722485361E+00
(PID.TID 0000.0001) %MON ke_mean                      =   5.6166550191105E-05
(PID.TID 0000.0001) %MON ke_vol                       =   1.3398085093250E+18
(PID.TID 0000.0001) %MON vort_r_min                   =  -7.4065054006953E-06
(PID.TID 0000.0001) %MON vort_r_max                   =   4.2846873431438E-06
(PID.TID 0000.0001) %MON vort_a_mean                  =  -2.0549865324846E-05
(PID.TID 0000.0001) %MON vort_a_sd                    =   7.5259266903027E-05
(PID.TID 0000.0001) %MON vort_p_mean                  =  -2.4783415251947E-05
(PID.TID 0000.0001) %MON vort_p_sd                    =   1.2810603215349E-04
(PID.TID 0000.0001) %MON surfExpan_theta_mean         =   1.6856558091366E-06
(PID.TID 0000.0001) %MON surfExpan_salt_mean          =   5.2503569653151E-07
(PID.TID 0000.0001) // =======================================================
(PID.TID 0000.0001) // End MONITOR dynamic field statistics
(PID.TID 0000.0001) // =======================================================
(PID.TID 0000.0001) // =======================================================
(PID.TID 0000.0001) // Begin MONITOR SEAICE statistics
(PID.TID 0000.0001) // =======================================================
(PID.TID 0000.0001) %MON seaice_tsnumber              =                    12
(PID.TID 0000.0001) %MON seaice_time_sec              =   1.0800000000000E+04
(PID.TID 0000.0001) %MON seaice_uice_max              =   1.9805916856064E+00
(PID.TID 0000.0001) %MON seaice_uice_min              =  -6.5263881140051E-01
(PID.TID 0000.0001) %MON seaice_uice_mean             =   7.5204970746448E-04
(PID.TID 0000.0001) %MON seaice_uice_sd               =   5.7993223972152E-02
(PID.TID 0000.0001) %MON seaice_uice_del2             =   1.5847480731249E-03
(PID.TID 0000.0001) %MON seaice_vice_max              =   1.4295197834202E+00
(PID.TID 0000.0001) %MON seaice_vice_min              =  -1.6472787180807E+00
(PID.TID 0000.0001) %MON seaice_vice_mean             =  -3.9228471660886E-03
(PID.TID 0000.0001) %MON seaice_vice_sd               =   5.3115028505848E-02
(PID.TID 0000.0001) %MON seaice_vice_del2             =   1.9724464118350E-03
(PID.TID 0000.0001) %MON seaice_area_max              =   9.9905242645217E-01
(PID.TID 0000.0001) %MON seaice_area_min              =   0.0000000000000E+00
(PID.TID 0000.0001) %MON seaice_area_mean             =   6.7647542802290E-02
(PID.TID 0000.0001) %MON seaice_area_sd               =   2.3311160065942E-01
(PID.TID 0000.0001) %MON seaice_area_del2             =   1.7441754001743E-03
(PID.TID 0000.0001) %MON seaice_heff_max              =   8.4063079271954E+00
(PID.TID 0000.0001) %MON seaice_heff_min              =   0.0000000000000E+00
(PID.TID 0000.0001) %MON seaice_heff_mean             =   2.0373629304932E-01
(PID.TID 0000.0001) %MON seaice_heff_sd               =   9.7123168166840E-01
(PID.TID 0000.0001) %MON seaice_heff_del2             =   6.2105032824363E-03
(PID.TID 0000.0001) %MON seaice_hsnow_max             =   2.0236133908988E+00
(PID.TID 0000.0001) %MON seaice_hsnow_min             =   0.0000000000000E+00
(PID.TID 0000.0001) %MON seaice_hsnow_mean            =   2.2596484945879E-02
(PID.TID 0000.0001) %MON seaice_hsnow_sd              =   1.1894220439680E-01
(PID.TID 0000.0001) %MON seaice_hsnow_del2            =   1.4582013883295E-03
(PID.TID 0000.0001) // =======================================================
(PID.TID 0000.0001) // End MONITOR SEAICE statistics
(PID.TID 0000.0001) // =======================================================
 Compute Stats, Diag. #    211  SIarea    vol(   0 ): 1.456E+15  Parms: SM      M1      
 Compute Stats, Diag. #    214  SIheff    vol(   0 ): 1.456E+15  Parms: SM      M1      
 Compute Stats, Diag. #    216  SIhsnow   vol(   0 ): 1.456E+15  Parms: SM      M1      
 Compute Stats, Diag. #     83  sIceLoad  vol(   0 ): 1.456E+15  Parms: SM      U1      
 Compute Stats, Diag. #    220  SIuice    vol(   0 ): 1.383E+15  Parms: UU      M1      
 Compute Stats, Diag. #    221  SIvice    vol(   0 ): 1.391E+15  Parms: VV      M1      
 Compute Stats, Diag. #    222  SItaux    vol(   0 ): 1.383E+15  Parms: UU      U1      
 Compute Stats, Diag. #    223  SItauy    vol(   0 ): 1.391E+15  Parms: VV      U1      
 Compute Stats, Diag. #    282  SIareaN   vol(   0 ): 7.278E+15  Parms: SM      MX      
 Compute Stats, Diag. #    281  SIheffN   vol(   0 ): 7.278E+15  Parms: SM      MX      
 Compute Stats, Diag. #    283  SIhsnowN  vol(   0 ): 7.278E+15  Parms: SM      MX      
 Compute Stats, Diag. #    287  SIqSnow   vol(   0 ): 7.278E+15  Parms: SM      MX      
 Compute Stats, Diag. #    286  SIqIce    vol(   0 ): 2.911E+16  Parms: SM      MX      
 Compute Stats, Diag. #    288  SImeltPd  vol(   0 ): 7.278E+15  Parms: SM      MX      
 Compute Stats, Diag. #    285  SItIces   vol(   0 ): 7.278E+15  Parms: SM      MX      
 Compute Stats, Diag. #    289  SIiceAge  vol(   0 ): 7.278E+15  Parms: SM      MX      
 Compute Stats, Diag. #    290  SI_dArea  vol(   0 ): 7.278E+15  Parms: SM      MX      
 Compute Stats, Diag. #    291  SI_dHeff  vol(   0 ): 7.278E+15  Parms: SM      MX      
 Compute Stats, Diag. #    292  SI_dHsnw  vol(   0 ): 7.278E+15  Parms: SM      MX      
 Compute Stats, Diag. #    295  SI_dQSnw  vol(   0 ): 7.278E+15  Parms: SM      MX      
 Compute Stats, Diag. #    294  SI_dQIce  vol(   0 ): 2.911E+16  Parms: SM      MX      
 SEAICE_LSR: Residual Initial ipass,Uice,Vice=    1  3.35240278E-03  2.80802458E-03
 SEAICE_LSR (ipass=   1) iters,dU,Resid=     8  4.37349356E-05  1.11347393E-05
 SEAICE_LSR (ipass=   1) iters,dV,Resid=     8  3.77196612E-05  4.32471572E-06
 SEAICE_LSR: Residual Initial ipass,Uice,Vice=    2  1.87087190E-03  1.33186553E-03
 SEAICE_LSR (ipass=   2) iters,dU,Resid=     6  8.53785362E-05  1.34974337E-05
 SEAICE_LSR (ipass=   2) iters,dV,Resid=     6  7.50492808E-05  1.11741534E-05
 cg2d: Sum(rhs),rhsMax =  -2.24323896591100E+01  6.76895535958285E+01
(PID.TID 0000.0001)      cg2d_init_res =   5.38641334661164E-01
(PID.TID 0000.0001)      cg2d_iters(min,last) =      -1      10
(PID.TID 0000.0001)      cg2d_last_res =   8.87376478669955E-08
(PID.TID 0000.0001) // =======================================================
(PID.TID 0000.0001) // Begin MONITOR dynamic field statistics
(PID.TID 0000.0001) // =======================================================
(PID.TID 0000.0001) %MON time_tsnumber                =                    13
(PID.TID 0000.0001) %MON time_secondsf                =   1.1700000000000E+04
(PID.TID 0000.0001) %MON dynstat_eta_max              =   3.1067162413809E+00
(PID.TID 0000.0001) %MON dynstat_eta_min              =  -2.4230289599661E+00
(PID.TID 0000.0001) %MON dynstat_eta_mean             =   1.7644053396937E-02
(PID.TID 0000.0001) %MON dynstat_eta_sd               =   1.1517582712713E-01
(PID.TID 0000.0001) %MON dynstat_eta_del2             =   2.7084037492665E-03
(PID.TID 0000.0001) %MON dynstat_uvel_max             =   2.0811106723459E+00
(PID.TID 0000.0001) %MON dynstat_uvel_min             =  -8.0077586293338E-01
(PID.TID 0000.0001) %MON dynstat_uvel_mean            =   3.6775230780787E-04
(PID.TID 0000.0001) %MON dynstat_uvel_sd              =   8.3127897802435E-03
(PID.TID 0000.0001) %MON dynstat_uvel_del2            =   1.3803701583569E-04
(PID.TID 0000.0001) %MON dynstat_vvel_max             =   1.3408954649416E+00
(PID.TID 0000.0001) %MON dynstat_vvel_min             =  -1.5482019198166E+00
(PID.TID 0000.0001) %MON dynstat_vvel_mean            =  -2.6178402622452E-05
(PID.TID 0000.0001) %MON dynstat_vvel_sd              =   7.2566339294807E-03
(PID.TID 0000.0001) %MON dynstat_vvel_del2            =   1.6017197284764E-04
(PID.TID 0000.0001) %MON dynstat_wvel_max             =   1.8760861010799E-04
(PID.TID 0000.0001) %MON dynstat_wvel_min             =  -5.6690410474050E-04
(PID.TID 0000.0001) %MON dynstat_wvel_mean            =  -2.7456898893470E-07
(PID.TID 0000.0001) %MON dynstat_wvel_sd              =   8.1354129325206E-06
(PID.TID 0000.0001) %MON dynstat_wvel_del2            =   8.0526630678180E-08
(PID.TID 0000.0001) %MON dynstat_theta_max            =   2.0460294070726E+01
(PID.TID 0000.0001) %MON dynstat_theta_min            =   1.6245458313151E+01
(PID.TID 0000.0001) %MON dynstat_theta_mean           =   1.9997739983354E+01
(PID.TID 0000.0001) %MON dynstat_theta_sd             =   1.8827598770960E-02
(PID.TID 0000.0001) %MON dynstat_theta_del2           =   2.8953733875647E-04
(PID.TID 0000.0001) %MON dynstat_salt_max             =   3.5070560120515E+01
(PID.TID 0000.0001) %MON dynstat_salt_min             =   3.3029510514810E+01
(PID.TID 0000.0001) %MON dynstat_salt_mean            =   3.4999842029045E+01
(PID.TID 0000.0001) %MON dynstat_salt_sd              =   9.7062597327562E-03
(PID.TID 0000.0001) %MON dynstat_salt_del2            =   2.5809636962160E-04
(PID.TID 0000.0001) %MON dynstat_sst_max              =   2.0460294070726E+01
(PID.TID 0000.0001) %MON dynstat_sst_min              =   1.6245458313151E+01
(PID.TID 0000.0001) %MON dynstat_sst_mean             =   1.9999320585935E+01
(PID.TID 0000.0001) %MON dynstat_sst_sd               =   1.2681000429103E-01
(PID.TID 0000.0001) %MON dynstat_sst_del2             =   3.2700998030044E-03
(PID.TID 0000.0001) %MON dynstat_sss_max              =   3.5070560120515E+01
(PID.TID 0000.0001) %MON dynstat_sss_min              =   3.3029510514810E+01
(PID.TID 0000.0001) %MON dynstat_sss_mean             =   3.4993950825320E+01
(PID.TID 0000.0001) %MON dynstat_sss_sd               =   8.2265162184215E-02
(PID.TID 0000.0001) %MON dynstat_sss_del2             =   3.2386215784299E-03
(PID.TID 0000.0001) %MON forcing_qnet_max             =   1.3110904065264E+05
(PID.TID 0000.0001) %MON forcing_qnet_min             =  -7.4467148467618E+03
(PID.TID 0000.0001) %MON forcing_qnet_mean            =  -1.4716872371324E+02
(PID.TID 0000.0001) %MON forcing_qnet_sd              =   2.3358993731659E+03
(PID.TID 0000.0001) %MON forcing_qnet_del2            =   7.3546685058958E+01
(PID.TID 0000.0001) %MON forcing_qsw_max              =   0.0000000000000E+00
(PID.TID 0000.0001) %MON forcing_qsw_min              =  -1.0776228633773E+02
(PID.TID 0000.0001) %MON forcing_qsw_mean             =  -2.2238551350185E+01
(PID.TID 0000.0001) %MON forcing_qsw_sd               =   3.0510354131321E+01
(PID.TID 0000.0001) %MON forcing_qsw_del2             =   1.6587373122217E-01
(PID.TID 0000.0001) %MON forcing_empmr_max            =   9.7974697127938E-03
(PID.TID 0000.0001) %MON forcing_empmr_min            =  -1.4080542325974E-01
(PID.TID 0000.0001) %MON forcing_empmr_mean           =  -5.6173934754673E-04
(PID.TID 0000.0001) %MON forcing_empmr_sd             =   6.2086641695754E-03
(PID.TID 0000.0001) %MON forcing_empmr_del2           =   2.4569229822178E-04
(PID.TID 0000.0001) %MON forcing_fu_max               =   1.0041849044864E+00
(PID.TID 0000.0001) %MON forcing_fu_min               =  -5.8205280687523E-01
(PID.TID 0000.0001) %MON forcing_fu_mean              =  -1.9318563841879E-03
(PID.TID 0000.0001) %MON forcing_fu_sd                =   1.0794255077335E-01
(PID.TID 0000.0001) %MON forcing_fu_del2              =   9.3847282732625E-04
(PID.TID 0000.0001) %MON forcing_fv_max               =   4.7573178418642E-01
(PID.TID 0000.0001) %MON forcing_fv_min               =  -5.7511394309214E-01
(PID.TID 0000.0001) %MON forcing_fv_mean              =  -5.6492386384192E-03
(PID.TID 0000.0001) %MON forcing_fv_sd                =   9.1275369514563E-02
(PID.TID 0000.0001) %MON forcing_fv_del2              =   8.1722313300256E-04
(PID.TID 0000.0001) %MON trAdv_CFL_u_max              =   6.8087601561546E-03
(PID.TID 0000.0001) %MON trAdv_CFL_v_max              =   8.6556963785639E-03
(PID.TID 0000.0001) %MON trAdv_CFL_w_max              =   6.6325073814913E-03
(PID.TID 0000.0001) %MON advcfl_uvel_max              =   6.9400184296592E-03
(PID.TID 0000.0001) %MON advcfl_vvel_max              =   4.6396041535338E-03
(PID.TID 0000.0001) %MON advcfl_wvel_max              =   5.4735776420304E-03
(PID.TID 0000.0001) %MON advcfl_W_hf_max              =   6.6325073814913E-03
(PID.TID 0000.0001) %MON pe_b_mean                    =   1.8086700651095E-05
(PID.TID 0000.0001) %MON ke_max                       =   1.6425223049362E+00
(PID.TID 0000.0001) %MON ke_mean                      =   5.6239712861827E-05
(PID.TID 0000.0001) %MON ke_vol                       =   1.3398086880524E+18
(PID.TID 0000.0001) %MON vort_r_min                   =  -7.9704086089017E-06
(PID.TID 0000.0001) %MON vort_r_max                   =   3.9225144279019E-06
(PID.TID 0000.0001) %MON vort_a_mean                  =  -2.0549865324846E-05
(PID.TID 0000.0001) %MON vort_a_sd                    =   7.5259266355729E-05
(PID.TID 0000.0001) %MON vort_p_mean                  =  -2.4783411228855E-05
(PID.TID 0000.0001) %MON vort_p_sd                    =   1.2810603275054E-04
(PID.TID 0000.0001) %MON surfExpan_theta_mean         =   1.5909051245864E-06
(PID.TID 0000.0001) %MON surfExpan_salt_mean          =   5.5251535886710E-07
(PID.TID 0000.0001) // =======================================================
(PID.TID 0000.0001) // End MONITOR dynamic field statistics
(PID.TID 0000.0001) // =======================================================
(PID.TID 0000.0001) // =======================================================
(PID.TID 0000.0001) // Begin MONITOR SEAICE statistics
(PID.TID 0000.0001) // =======================================================
(PID.TID 0000.0001) %MON seaice_tsnumber              =                    13
(PID.TID 0000.0001) %MON seaice_time_sec              =   1.1700000000000E+04
(PID.TID 0000.0001) %MON seaice_uice_max              =   1.9977774332200E+00
(PID.TID 0000.0001) %MON seaice_uice_min              =  -6.4360395802595E-01
(PID.TID 0000.0001) %MON seaice_uice_mean             =   7.1711853268702E-04
(PID.TID 0000.0001) %MON seaice_uice_sd               =   5.8862575070938E-02
(PID.TID 0000.0001) %MON seaice_uice_del2             =   1.5866201829952E-03
(PID.TID 0000.0001) %MON seaice_vice_max              =   1.3756511310092E+00
(PID.TID 0000.0001) %MON seaice_vice_min              =  -1.6368925796808E+00
(PID.TID 0000.0001) %MON seaice_vice_mean             =  -4.0717354471765E-03
(PID.TID 0000.0001) %MON seaice_vice_sd               =   5.3048451734639E-02
(PID.TID 0000.0001) %MON seaice_vice_del2             =   1.9037037040563E-03
(PID.TID 0000.0001) %MON seaice_area_max              =   9.9896917814450E-01
(PID.TID 0000.0001) %MON seaice_area_min              =   0.0000000000000E+00
(PID.TID 0000.0001) %MON seaice_area_mean             =   6.7553183987324E-02
(PID.TID 0000.0001) %MON seaice_area_sd               =   2.3285328385543E-01
(PID.TID 0000.0001) %MON seaice_area_del2             =   1.7395700884550E-03
(PID.TID 0000.0001) %MON seaice_heff_max              =   8.4037050930846E+00
(PID.TID 0000.0001) %MON seaice_heff_min              =   0.0000000000000E+00
(PID.TID 0000.0001) %MON seaice_heff_mean             =   2.0356149655598E-01
(PID.TID 0000.0001) %MON seaice_heff_sd               =   9.7075814998453E-01
(PID.TID 0000.0001) %MON seaice_heff_del2             =   6.2089287979734E-03
(PID.TID 0000.0001) %MON seaice_hsnow_max             =   2.0228750645301E+00
(PID.TID 0000.0001) %MON seaice_hsnow_min             =   0.0000000000000E+00
(PID.TID 0000.0001) %MON seaice_hsnow_mean            =   2.2578003517547E-02
(PID.TID 0000.0001) %MON seaice_hsnow_sd              =   1.1888308607565E-01
(PID.TID 0000.0001) %MON seaice_hsnow_del2            =   1.4574810495764E-03
(PID.TID 0000.0001) // =======================================================
(PID.TID 0000.0001) // End MONITOR SEAICE statistics
(PID.TID 0000.0001) // =======================================================
 Computing Diagnostic #    211  SIarea       Counter:       1   Parms: SM      M1      
 Computing Diagnostic #    214  SIheff       Counter:       1   Parms: SM      M1      
 Computing Diagnostic #    216  SIhsnow      Counter:       1   Parms: SM      M1      
 Computing Diagnostic #     83  sIceLoad     Counter:       1   Parms: SM      U1      
 Computing Diagnostic #    220  SIuice       Counter:       1   Parms: UU      M1      
           Vector  Mate for  SIuice       Diagnostic #    221  SIvice   exists 
 Computing Diagnostic #    221  SIvice       Counter:       1   Parms: VV      M1      
           Vector  Mate for  SIvice       Diagnostic #    220  SIuice   exists 
 Computing Diagnostic #    222  SItaux       Counter:       1   Parms: UU      U1      
           Vector  Mate for  SItaux       Diagnostic #    223  SItauy   exists 
 Computing Diagnostic #    223  SItauy       Counter:       1   Parms: VV      U1      
           Vector  Mate for  SItauy       Diagnostic #    222  SItaux   exists 
 Computing Diagnostic #    284  CPLoWGHT     Counter:       1   Parms: SM      M1      
 Computing Diagnostic #    282  SIareaN      Counter:       1   Parms: SM      MX      
 Computing Diagnostic #    281  SIheffN      Counter:       1   Parms: SM      MX      
 Computing Diagnostic #    283  SIhsnowN     Counter:       1   Parms: SM      MX      
 Computing Diagnostic #    287  SIqSnow      Counter:       1   Parms: SM      MX      
 Computing Diagnostic #    288  SImeltPd     Counter:       1   Parms: SM      MX      
 Computing Diagnostic #    285  SItIces      Counter:       1   Parms: SM      MX      
 Computing Diagnostic #    289  SIiceAge     Counter:       1   Parms: SM      MX      
 Computing Diagnostic #    290  SI_dArea     Counter:       1   Parms: SM      MX      
 Computing Diagnostic #    291  SI_dHeff     Counter:       1   Parms: SM      MX      
 Computing Diagnostic #    292  SI_dHsnw     Counter:       1   Parms: SM      MX      
 Computing Diagnostic #    295  SI_dQSnw     Counter:       1   Parms: SM      MX      
 Computing Diagnostic #    286  SIqIce       Counter:       1   Parms: SM      MX      
 Computing Diagnostic #    294  SI_dQIce     Counter:       1   Parms: SM      MX      
 SEAICE_LSR: Residual Initial ipass,Uice,Vice=    1  2.93049927E-03  2.91511076E-03
 SEAICE_LSR (ipass=   1) iters,dU,Resid=     8  3.41109999E-05  1.23770439E-05
 SEAICE_LSR (ipass=   1) iters,dV,Resid=     8  3.84385452E-05  5.57891254E-06
 SEAICE_LSR: Residual Initial ipass,Uice,Vice=    2  1.66183581E-03  1.33179064E-03
 SEAICE_LSR (ipass=   2) iters,dU,Resid=     6  5.79299915E-05  1.35388358E-05
 SEAICE_LSR (ipass=   2) iters,dV,Resid=     6  4.86727189E-05  7.54718973E-06
 cg2d: Sum(rhs),rhsMax =  -2.12795465719269E+01  7.33203747770981E+01
(PID.TID 0000.0001)      cg2d_init_res =   4.75833877191655E-01
(PID.TID 0000.0001)      cg2d_iters(min,last) =      -1      10
(PID.TID 0000.0001)      cg2d_last_res =   7.53105345981571E-08
(PID.TID 0000.0001) // =======================================================
(PID.TID 0000.0001) // Begin MONITOR dynamic field statistics
(PID.TID 0000.0001) // =======================================================
(PID.TID 0000.0001) %MON time_tsnumber                =                    14
(PID.TID 0000.0001) %MON time_secondsf                =   1.2600000000000E+04
(PID.TID 0000.0001) %MON dynstat_eta_max              =   3.3608229320147E+00
(PID.TID 0000.0001) %MON dynstat_eta_min              =  -2.4238764631151E+00
(PID.TID 0000.0001) %MON dynstat_eta_mean             =   1.8129599871586E-02
(PID.TID 0000.0001) %MON dynstat_eta_sd               =   1.1185872211489E-01
(PID.TID 0000.0001) %MON dynstat_eta_del2             =   2.7811430353646E-03
(PID.TID 0000.0001) %MON dynstat_uvel_max             =   2.0621333901611E+00
(PID.TID 0000.0001) %MON dynstat_uvel_min             =  -7.9793303640498E-01
(PID.TID 0000.0001) %MON dynstat_uvel_mean            =   3.8923537552604E-04
(PID.TID 0000.0001) %MON dynstat_uvel_sd              =   8.2825201900374E-03
(PID.TID 0000.0001) %MON dynstat_uvel_del2            =   1.3562907619335E-04
(PID.TID 0000.0001) %MON dynstat_vvel_max             =   1.2852930180673E+00
(PID.TID 0000.0001) %MON dynstat_vvel_min             =  -1.4790449894267E+00
(PID.TID 0000.0001) %MON dynstat_vvel_mean            =  -2.1353885116132E-05
(PID.TID 0000.0001) %MON dynstat_vvel_sd              =   7.1835113289296E-03
(PID.TID 0000.0001) %MON dynstat_vvel_del2            =   1.5023586593685E-04
(PID.TID 0000.0001) %MON dynstat_wvel_max             =   2.1906040912248E-04
(PID.TID 0000.0001) %MON dynstat_wvel_min             =  -5.7564236023818E-04
(PID.TID 0000.0001) %MON dynstat_wvel_mean            =  -2.6200382454996E-07
(PID.TID 0000.0001) %MON dynstat_wvel_sd              =   8.5591822461355E-06
(PID.TID 0000.0001) %MON dynstat_wvel_del2            =   8.3614697645664E-08
(PID.TID 0000.0001) %MON dynstat_theta_max            =   2.0492862234455E+01
(PID.TID 0000.0001) %MON dynstat_theta_min            =   1.6222414252488E+01
(PID.TID 0000.0001) %MON dynstat_theta_mean           =   1.9997749350479E+01
(PID.TID 0000.0001) %MON dynstat_theta_sd             =   1.8884266010702E-02
(PID.TID 0000.0001) %MON dynstat_theta_del2           =   2.9024306009189E-04
(PID.TID 0000.0001) %MON dynstat_salt_max             =   3.5070538027004E+01
(PID.TID 0000.0001) %MON dynstat_salt_min             =   3.2902142385876E+01
(PID.TID 0000.0001) %MON dynstat_salt_mean            =   3.4999835907331E+01
(PID.TID 0000.0001) %MON dynstat_salt_sd              =   1.0310747060205E-02
(PID.TID 0000.0001) %MON dynstat_salt_del2            =   2.7458851766727E-04
(PID.TID 0000.0001) %MON dynstat_sst_max              =   2.0492862234455E+01
(PID.TID 0000.0001) %MON dynstat_sst_min              =   1.6222414252488E+01
(PID.TID 0000.0001) %MON dynstat_sst_mean             =   2.0001374118302E+01
(PID.TID 0000.0001) %MON dynstat_sst_sd               =   1.2818133099773E-01
(PID.TID 0000.0001) %MON dynstat_sst_del2             =   3.2835648831600E-03
(PID.TID 0000.0001) %MON dynstat_sss_max              =   3.5070538027004E+01
(PID.TID 0000.0001) %MON dynstat_sss_min              =   3.2902142385876E+01
(PID.TID 0000.0001) %MON dynstat_sss_mean             =   3.4993590429056E+01
(PID.TID 0000.0001) %MON dynstat_sss_sd               =   8.7478793059485E-02
(PID.TID 0000.0001) %MON dynstat_sss_del2             =   3.4460848135699E-03
(PID.TID 0000.0001) %MON forcing_qnet_max             =   1.1401069521603E+05
(PID.TID 0000.0001) %MON forcing_qnet_min             =  -2.0045378906250E+04
(PID.TID 0000.0001) %MON forcing_qnet_mean            =  -1.5742405258733E+02
(PID.TID 0000.0001) %MON forcing_qnet_sd              =   1.7342665110576E+03
(PID.TID 0000.0001) %MON forcing_qnet_del2            =   6.6719326977608E+01
(PID.TID 0000.0001) %MON forcing_qsw_max              =   0.0000000000000E+00
(PID.TID 0000.0001) %MON forcing_qsw_min              =  -1.0701998554578E+02
(PID.TID 0000.0001) %MON forcing_qsw_mean             =  -2.2044769667193E+01
(PID.TID 0000.0001) %MON forcing_qsw_sd               =   3.0356768711767E+01
(PID.TID 0000.0001) %MON forcing_qsw_del2             =   1.6962380914716E-01
(PID.TID 0000.0001) %MON forcing_empmr_max            =   9.6965068951249E-03
(PID.TID 0000.0001) %MON forcing_empmr_min            =  -1.3935548067093E-01
(PID.TID 0000.0001) %MON forcing_empmr_mean           =  -5.5837844584605E-04
(PID.TID 0000.0001) %MON forcing_empmr_sd             =   6.1452810981534E-03
(PID.TID 0000.0001) %MON forcing_empmr_del2           =   2.4316575893107E-04
(PID.TID 0000.0001) %MON forcing_fu_max               =   9.9472139205611E-01
(PID.TID 0000.0001) %MON forcing_fu_min               =  -5.8249284821295E-01
(PID.TID 0000.0001) %MON forcing_fu_mean              =  -1.7130715546230E-03
(PID.TID 0000.0001) %MON forcing_fu_sd                =   1.0712700554385E-01
(PID.TID 0000.0001) %MON forcing_fu_del2              =   9.2717198240750E-04
(PID.TID 0000.0001) %MON forcing_fv_max               =   4.6722464655981E-01
(PID.TID 0000.0001) %MON forcing_fv_min               =  -5.7350609894005E-01
(PID.TID 0000.0001) %MON forcing_fv_mean              =  -5.2552998603732E-03
(PID.TID 0000.0001) %MON forcing_fv_sd                =   9.0482631997561E-02
(PID.TID 0000.0001) %MON forcing_fv_del2              =   8.0905526238513E-04
(PID.TID 0000.0001) %MON trAdv_CFL_u_max              =   6.7700899118533E-03
(PID.TID 0000.0001) %MON trAdv_CFL_v_max              =   8.3482561139664E-03
(PID.TID 0000.0001) %MON trAdv_CFL_w_max              =   6.3497565252066E-03
(PID.TID 0000.0001) %MON advcfl_uvel_max              =   6.8767336222450E-03
(PID.TID 0000.0001) %MON advcfl_vvel_max              =   4.4323567800642E-03
(PID.TID 0000.0001) %MON advcfl_wvel_max              =   5.2372100314347E-03
(PID.TID 0000.0001) %MON advcfl_W_hf_max              =   6.3497565252066E-03
(PID.TID 0000.0001) %MON pe_b_mean                    =   1.7106577732360E-05
(PID.TID 0000.0001) %MON ke_max                       =   1.5276663943546E+00
(PID.TID 0000.0001) %MON ke_mean                      =   5.5526429097825E-05
(PID.TID 0000.0001) %MON ke_vol                       =   1.3398088657998E+18
(PID.TID 0000.0001) %MON vort_r_min                   =  -8.4364409907116E-06
(PID.TID 0000.0001) %MON vort_r_max                   =   3.4803544600076E-06
(PID.TID 0000.0001) %MON vort_a_mean                  =  -2.0549865324846E-05
(PID.TID 0000.0001) %MON vort_a_sd                    =   7.5259265912707E-05
(PID.TID 0000.0001) %MON vort_p_mean                  =  -2.4783407395803E-05
(PID.TID 0000.0001) %MON vort_p_sd                    =   1.2810602108217E-04
(PID.TID 0000.0001) %MON surfExpan_theta_mean         =   1.4822789721981E-06
(PID.TID 0000.0001) %MON surfExpan_salt_mean          =   5.7939543354095E-07
(PID.TID 0000.0001) // =======================================================
(PID.TID 0000.0001) // End MONITOR dynamic field statistics
(PID.TID 0000.0001) // =======================================================
(PID.TID 0000.0001) // =======================================================
(PID.TID 0000.0001) // Begin MONITOR SEAICE statistics
(PID.TID 0000.0001) // =======================================================
(PID.TID 0000.0001) %MON seaice_tsnumber              =                    14
(PID.TID 0000.0001) %MON seaice_time_sec              =   1.2600000000000E+04
(PID.TID 0000.0001) %MON seaice_uice_max              =   1.9904873527633E+00
(PID.TID 0000.0001) %MON seaice_uice_min              =  -6.2218849523246E-01
(PID.TID 0000.0001) %MON seaice_uice_mean             =   6.4830584782269E-04
(PID.TID 0000.0001) %MON seaice_uice_sd               =   5.9276854408936E-02
(PID.TID 0000.0001) %MON seaice_uice_del2             =   1.5707319543450E-03
(PID.TID 0000.0001) %MON seaice_vice_max              =   1.3198558565687E+00
(PID.TID 0000.0001) %MON seaice_vice_min              =  -1.5973500827942E+00
(PID.TID 0000.0001) %MON seaice_vice_mean             =  -4.2218002050195E-03
(PID.TID 0000.0001) %MON seaice_vice_sd               =   5.2639700084629E-02
(PID.TID 0000.0001) %MON seaice_vice_del2             =   1.8132754705962E-03
(PID.TID 0000.0001) %MON seaice_area_max              =   9.9887829404310E-01
(PID.TID 0000.0001) %MON seaice_area_min              =   0.0000000000000E+00
(PID.TID 0000.0001) %MON seaice_area_mean             =   6.7458762570308E-02
(PID.TID 0000.0001) %MON seaice_area_sd               =   2.3259491890357E-01
(PID.TID 0000.0001) %MON seaice_area_del2             =   1.7350047047933E-03
(PID.TID 0000.0001) %MON seaice_heff_max              =   8.4011016697600E+00
(PID.TID 0000.0001) %MON seaice_heff_min              =   0.0000000000000E+00
(PID.TID 0000.0001) %MON seaice_heff_mean             =   2.0338627457793E-01
(PID.TID 0000.0001) %MON seaice_heff_sd               =   9.7028297559859E-01
(PID.TID 0000.0001) %MON seaice_heff_del2             =   6.2073661602012E-03
(PID.TID 0000.0001) %MON seaice_hsnow_max             =   2.0221483896688E+00
(PID.TID 0000.0001) %MON seaice_hsnow_min             =   0.0000000000000E+00
(PID.TID 0000.0001) %MON seaice_hsnow_mean            =   2.2559444100130E-02
(PID.TID 0000.0001) %MON seaice_hsnow_sd              =   1.1882410034028E-01
(PID.TID 0000.0001) %MON seaice_hsnow_del2            =   1.4567737233889E-03
(PID.TID 0000.0001) // =======================================================
(PID.TID 0000.0001) // End MONITOR SEAICE statistics
(PID.TID 0000.0001) // =======================================================
 SEAICE_LSR: Residual Initial ipass,Uice,Vice=    1  2.92156097E-03  3.08594131E-03
 SEAICE_LSR (ipass=   1) iters,dU,Resid=     6  5.66188162E-05  2.84315018E-05
 SEAICE_LSR (ipass=   1) iters,dV,Resid=     6  8.85294331E-05  1.28740032E-05
 SEAICE_LSR: Residual Initial ipass,Uice,Vice=    2  1.83306110E-03  1.47007941E-03
 SEAICE_LSR (ipass=   2) iters,dU,Resid=     6  3.37615371E-05  1.67729131E-05
 SEAICE_LSR (ipass=   2) iters,dV,Resid=     6  3.64943924E-05  6.31421396E-06
 cg2d: Sum(rhs),rhsMax =  -2.04641829637607E+01  7.82651373634390E+01
(PID.TID 0000.0001)      cg2d_init_res =   4.21854794358094E-01
(PID.TID 0000.0001)      cg2d_iters(min,last) =      -1      10
(PID.TID 0000.0001)      cg2d_last_res =   8.02924059920927E-08
(PID.TID 0000.0001) // =======================================================
(PID.TID 0000.0001) // Begin MONITOR dynamic field statistics
(PID.TID 0000.0001) // =======================================================
(PID.TID 0000.0001) %MON time_tsnumber                =                    15
(PID.TID 0000.0001) %MON time_secondsf                =   1.3500000000000E+04
(PID.TID 0000.0001) %MON dynstat_eta_max              =   3.5839267631406E+00
(PID.TID 0000.0001) %MON dynstat_eta_min              =  -2.1811915605145E+00
(PID.TID 0000.0001) %MON dynstat_eta_mean             =   1.8610752564357E-02
(PID.TID 0000.0001) %MON dynstat_eta_sd               =   1.1147661074839E-01
(PID.TID 0000.0001) %MON dynstat_eta_del2             =   2.9362435737971E-03
(PID.TID 0000.0001) %MON dynstat_uvel_max             =   2.0207846175724E+00
(PID.TID 0000.0001) %MON dynstat_uvel_min             =  -7.8662731733561E-01
(PID.TID 0000.0001) %MON dynstat_uvel_mean            =   4.0821561155764E-04
(PID.TID 0000.0001) %MON dynstat_uvel_sd              =   8.1778020669585E-03
(PID.TID 0000.0001) %MON dynstat_uvel_del2            =   1.3206256333568E-04
(PID.TID 0000.0001) %MON dynstat_vvel_max             =   1.2127862119216E+00
(PID.TID 0000.0001) %MON dynstat_vvel_min             =  -1.3860999756271E+00
(PID.TID 0000.0001) %MON dynstat_vvel_mean            =  -1.4023043194195E-05
(PID.TID 0000.0001) %MON dynstat_vvel_sd              =   7.0935302094654E-03
(PID.TID 0000.0001) %MON dynstat_vvel_del2            =   1.3982151075648E-04
(PID.TID 0000.0001) %MON dynstat_wvel_max             =   2.5834943276781E-04
(PID.TID 0000.0001) %MON dynstat_wvel_min             =  -5.7334928335308E-04
(PID.TID 0000.0001) %MON dynstat_wvel_mean            =  -2.6453731521864E-07
(PID.TID 0000.0001) %MON dynstat_wvel_sd              =   8.9166369002758E-06
(PID.TID 0000.0001) %MON dynstat_wvel_del2            =   8.5564984150450E-08
(PID.TID 0000.0001) %MON dynstat_theta_max            =   2.0525054914058E+01
(PID.TID 0000.0001) %MON dynstat_theta_min            =   1.6200439807748E+01
(PID.TID 0000.0001) %MON dynstat_theta_mean           =   1.9997759395588E+01
(PID.TID 0000.0001) %MON dynstat_theta_sd             =   1.8938008006897E-02
(PID.TID 0000.0001) %MON dynstat_theta_del2           =   2.9216565747029E-04
(PID.TID 0000.0001) %MON dynstat_salt_max             =   3.5070333728706E+01
(PID.TID 0000.0001) %MON dynstat_salt_min             =   3.2777788632647E+01
(PID.TID 0000.0001) %MON dynstat_salt_mean            =   3.4999830127488E+01
(PID.TID 0000.0001) %MON dynstat_salt_sd              =   1.0900929641951E-02
(PID.TID 0000.0001) %MON dynstat_salt_del2            =   2.9069784126316E-04
(PID.TID 0000.0001) %MON dynstat_sst_max              =   2.0525054914058E+01
(PID.TID 0000.0001) %MON dynstat_sst_min              =   1.6200439807748E+01
(PID.TID 0000.0001) %MON dynstat_sst_mean             =   2.0003409546098E+01
(PID.TID 0000.0001) %MON dynstat_sst_sd               =   1.2941252055658E-01
(PID.TID 0000.0001) %MON dynstat_sst_del2             =   3.3075361350797E-03
(PID.TID 0000.0001) %MON dynstat_sss_max              =   3.5070333728706E+01
(PID.TID 0000.0001) %MON dynstat_sss_min              =   3.2777788632647E+01
(PID.TID 0000.0001) %MON dynstat_sss_mean             =   3.4993258369258E+01
(PID.TID 0000.0001) %MON dynstat_sss_sd               =   9.2566223986669E-02
(PID.TID 0000.0001) %MON dynstat_sss_del2             =   3.6485780578914E-03
(PID.TID 0000.0001) %MON forcing_qnet_max             =   6.1555132653304E+03
(PID.TID 0000.0001) %MON forcing_qnet_min             =  -7.2571800337772E+03
(PID.TID 0000.0001) %MON forcing_qnet_mean            =  -1.6875882384795E+02
(PID.TID 0000.0001) %MON forcing_qnet_sd              =   7.4682718609167E+02
(PID.TID 0000.0001) %MON forcing_qnet_del2            =   1.3695422403794E+01
(PID.TID 0000.0001) %MON forcing_qsw_max              =   0.0000000000000E+00
(PID.TID 0000.0001) %MON forcing_qsw_min              =  -1.0582487722114E+02
(PID.TID 0000.0001) %MON forcing_qsw_mean             =  -2.1791874581810E+01
(PID.TID 0000.0001) %MON forcing_qsw_sd               =   3.0140978121902E+01
(PID.TID 0000.0001) %MON forcing_qsw_del2             =   1.7308393445052E-01
(PID.TID 0000.0001) %MON forcing_empmr_max            =   9.5965284854174E-03
(PID.TID 0000.0001) %MON forcing_empmr_min            =  -1.3791896402836E-01
(PID.TID 0000.0001) %MON forcing_empmr_mean           =  -5.5332559668683E-04
(PID.TID 0000.0001) %MON forcing_empmr_sd             =   6.0826193038636E-03
(PID.TID 0000.0001) %MON forcing_empmr_del2           =   2.4066421693045E-04
(PID.TID 0000.0001) %MON forcing_fu_max               =   9.7778169356217E-01
(PID.TID 0000.0001) %MON forcing_fu_min               =  -5.8449548449217E-01
(PID.TID 0000.0001) %MON forcing_fu_mean              =  -1.5575650674806E-03
(PID.TID 0000.0001) %MON forcing_fu_sd                =   1.0614483758419E-01
(PID.TID 0000.0001) %MON forcing_fu_del2              =   9.1435512973552E-04
(PID.TID 0000.0001) %MON forcing_fv_max               =   4.6019003264821E-01
(PID.TID 0000.0001) %MON forcing_fv_min               =  -5.6845337797621E-01
(PID.TID 0000.0001) %MON forcing_fv_mean              =  -4.8855352496228E-03
(PID.TID 0000.0001) %MON forcing_fv_sd                =   8.9632588336258E-02
(PID.TID 0000.0001) %MON forcing_fv_del2              =   8.0012196122895E-04
(PID.TID 0000.0001) %MON trAdv_CFL_u_max              =   6.6553458514313E-03
(PID.TID 0000.0001) %MON trAdv_CFL_v_max              =   7.9090155085782E-03
(PID.TID 0000.0001) %MON trAdv_CFL_w_max              =   6.0530793033285E-03
(PID.TID 0000.0001) %MON advcfl_uvel_max              =   6.7388451151017E-03
(PID.TID 0000.0001) %MON advcfl_vvel_max              =   4.1538220059142E-03
(PID.TID 0000.0001) %MON advcfl_wvel_max              =   4.9894530779057E-03
(PID.TID 0000.0001) %MON advcfl_W_hf_max              =   6.0530793033285E-03
(PID.TID 0000.0001) %MON pe_b_mean                    =   1.7016438632139E-05
(PID.TID 0000.0001) %MON ke_max                       =   1.3757154384979E+00
(PID.TID 0000.0001) %MON ke_mean                      =   5.4145434765241E-05
(PID.TID 0000.0001) %MON ke_vol                       =   1.3398090424837E+18
(PID.TID 0000.0001) %MON vort_r_min                   =  -8.7927263292294E-06
(PID.TID 0000.0001) %MON vort_r_max                   =   3.0734496807615E-06
(PID.TID 0000.0001) %MON vort_a_mean                  =  -2.0549865324846E-05
(PID.TID 0000.0001) %MON vort_a_sd                    =   7.5259265512819E-05
(PID.TID 0000.0001) %MON vort_p_mean                  =  -2.4783403713171E-05
(PID.TID 0000.0001) %MON vort_p_sd                    =   1.2810599840601E-04
(PID.TID 0000.0001) %MON surfExpan_theta_mean         =   1.3544382464974E-06
(PID.TID 0000.0001) %MON surfExpan_salt_mean          =   6.0361788156897E-07
(PID.TID 0000.0001) // =======================================================
(PID.TID 0000.0001) // End MONITOR dynamic field statistics
(PID.TID 0000.0001) // =======================================================
(PID.TID 0000.0001) // =======================================================
(PID.TID 0000.0001) // Begin MONITOR SEAICE statistics
(PID.TID 0000.0001) // =======================================================
(PID.TID 0000.0001) %MON seaice_tsnumber              =                    15
(PID.TID 0000.0001) %MON seaice_time_sec              =   1.3500000000000E+04
(PID.TID 0000.0001) %MON seaice_uice_max              =   1.9601400618377E+00
(PID.TID 0000.0001) %MON seaice_uice_min              =  -5.8984355791632E-01
(PID.TID 0000.0001) %MON seaice_uice_mean             =   5.5269692905229E-04
(PID.TID 0000.0001) %MON seaice_uice_sd               =   5.9173329811492E-02
(PID.TID 0000.0001) %MON seaice_uice_del2             =   1.5370860675663E-03
(PID.TID 0000.0001) %MON seaice_vice_max              =   1.2659302827473E+00
(PID.TID 0000.0001) %MON seaice_vice_min              =  -1.5305110418709E+00
(PID.TID 0000.0001) %MON seaice_vice_mean             =  -4.3540215156667E-03
(PID.TID 0000.0001) %MON seaice_vice_sd               =   5.1928385410308E-02
(PID.TID 0000.0001) %MON seaice_vice_del2             =   1.7063201775251E-03
(PID.TID 0000.0001) %MON seaice_area_max              =   9.9877978574531E-01
(PID.TID 0000.0001) %MON seaice_area_min              =   0.0000000000000E+00
(PID.TID 0000.0001) %MON seaice_area_mean             =   6.7364411824079E-02
(PID.TID 0000.0001) %MON seaice_area_sd               =   2.3233702966971E-01
(PID.TID 0000.0001) %MON seaice_area_del2             =   1.7304798030097E-03
(PID.TID 0000.0001) %MON seaice_heff_max              =   8.3984986213022E+00
(PID.TID 0000.0001) %MON seaice_heff_min              =   0.0000000000000E+00
(PID.TID 0000.0001) %MON seaice_heff_mean             =   2.0321106893812E-01
(PID.TID 0000.0001) %MON seaice_heff_sd               =   9.6980737714309E-01
(PID.TID 0000.0001) %MON seaice_heff_del2             =   6.2058108978434E-03
(PID.TID 0000.0001) %MON seaice_hsnow_max             =   2.0214359054887E+00
(PID.TID 0000.0001) %MON seaice_hsnow_min             =   0.0000000000000E+00
(PID.TID 0000.0001) %MON seaice_hsnow_mean            =   2.2540831846686E-02
(PID.TID 0000.0001) %MON seaice_hsnow_sd              =   1.1876516130557E-01
(PID.TID 0000.0001) %MON seaice_hsnow_del2            =   1.4560693769954E-03
(PID.TID 0000.0001) // =======================================================
(PID.TID 0000.0001) // End MONITOR SEAICE statistics
(PID.TID 0000.0001) // =======================================================
 SEAICE_LSR: Residual Initial ipass,Uice,Vice=    1  3.23875307E-03  3.33379505E-03
 SEAICE_LSR (ipass=   1) iters,dU,Resid=     6  2.22125875E-05  3.13742751E-05
 SEAICE_LSR (ipass=   1) iters,dV,Resid=     6  6.69465512E-05  1.00671906E-05
 SEAICE_LSR: Residual Initial ipass,Uice,Vice=    2  2.18217051E-03  1.63432871E-03
 SEAICE_LSR (ipass=   2) iters,dU,Resid=     4  4.97099959E-05  4.25510595E-05
 SEAICE_LSR (ipass=   2) iters,dV,Resid=     4  7.45544542E-05  1.56769156E-05
 cg2d: Sum(rhs),rhsMax =  -1.99297320291222E+01  8.24274826091619E+01
(PID.TID 0000.0001)      cg2d_init_res =   3.77548807066618E-01
(PID.TID 0000.0001)      cg2d_iters(min,last) =      -1      10
(PID.TID 0000.0001)      cg2d_last_res =   9.07372848216589E-08
(PID.TID 0000.0001) // =======================================================
(PID.TID 0000.0001) // Begin MONITOR dynamic field statistics
(PID.TID 0000.0001) // =======================================================
(PID.TID 0000.0001) %MON time_tsnumber                =                    16
(PID.TID 0000.0001) %MON time_secondsf                =   1.4400000000000E+04
(PID.TID 0000.0001) %MON dynstat_eta_max              =   3.7716551652273E+00
(PID.TID 0000.0001) %MON dynstat_eta_min              =  -1.7518644643005E+00
(PID.TID 0000.0001) %MON dynstat_eta_mean             =   1.9088625998045E-02
(PID.TID 0000.0001) %MON dynstat_eta_sd               =   1.1343108658739E-01
(PID.TID 0000.0001) %MON dynstat_eta_del2             =   3.1224352232601E-03
(PID.TID 0000.0001) %MON dynstat_uvel_max             =   1.9578904284251E+00
(PID.TID 0000.0001) %MON dynstat_uvel_min             =  -7.6748750880440E-01
(PID.TID 0000.0001) %MON dynstat_uvel_mean            =   4.2415448092705E-04
(PID.TID 0000.0001) %MON dynstat_uvel_sd              =   8.0165974973613E-03
(PID.TID 0000.0001) %MON dynstat_uvel_del2            =   1.2750925304332E-04
(PID.TID 0000.0001) %MON dynstat_vvel_max             =   1.1254999791934E+00
(PID.TID 0000.0001) %MON dynstat_vvel_min             =  -1.2719256424182E+00
(PID.TID 0000.0001) %MON dynstat_vvel_mean            =  -4.9878186478852E-06
(PID.TID 0000.0001) %MON dynstat_vvel_sd              =   6.9911569805911E-03
(PID.TID 0000.0001) %MON dynstat_vvel_del2            =   1.2942195105913E-04
(PID.TID 0000.0001) %MON dynstat_wvel_max             =   2.8968836928937E-04
(PID.TID 0000.0001) %MON dynstat_wvel_min             =  -5.5972845625306E-04
(PID.TID 0000.0001) %MON dynstat_wvel_mean            =  -2.7937283059549E-07
(PID.TID 0000.0001) %MON dynstat_wvel_sd              =   9.1581889525425E-06
(PID.TID 0000.0001) %MON dynstat_wvel_del2            =   8.6386437250792E-08
(PID.TID 0000.0001) %MON dynstat_theta_max            =   2.0556876023842E+01
(PID.TID 0000.0001) %MON dynstat_theta_min            =   1.6179813870959E+01
(PID.TID 0000.0001) %MON dynstat_theta_mean           =   1.9997769159125E+01
(PID.TID 0000.0001) %MON dynstat_theta_sd             =   1.9003600463069E-02
(PID.TID 0000.0001) %MON dynstat_theta_del2           =   2.9399572757988E-04
(PID.TID 0000.0001) %MON dynstat_salt_max             =   3.5071143287713E+01
(PID.TID 0000.0001) %MON dynstat_salt_min             =   3.2656370605538E+01
(PID.TID 0000.0001) %MON dynstat_salt_mean            =   3.4999824478347E+01
(PID.TID 0000.0001) %MON dynstat_salt_sd              =   1.1479272006860E-02
(PID.TID 0000.0001) %MON dynstat_salt_del2            =   3.0644418117505E-04
(PID.TID 0000.0001) %MON dynstat_sst_max              =   2.0556876023842E+01
(PID.TID 0000.0001) %MON dynstat_sst_min              =   1.6179813870959E+01
(PID.TID 0000.0001) %MON dynstat_sst_mean             =   2.0005297862675E+01
(PID.TID 0000.0001) %MON dynstat_sst_sd               =   1.3067064189719E-01
(PID.TID 0000.0001) %MON dynstat_sst_del2             =   3.3298433517247E-03
(PID.TID 0000.0001) %MON dynstat_sss_max              =   3.5071143287713E+01
(PID.TID 0000.0001) %MON dynstat_sss_min              =   3.2656370605538E+01
(PID.TID 0000.0001) %MON dynstat_sss_mean             =   3.4992911224104E+01
(PID.TID 0000.0001) %MON dynstat_sss_sd               =   9.7546695865135E-02
(PID.TID 0000.0001) %MON dynstat_sss_del2             =   3.8464849080098E-03
(PID.TID 0000.0001) %MON forcing_qnet_max             =   6.0739994702852E+03
(PID.TID 0000.0001) %MON forcing_qnet_min             =  -2.0218720703125E+04
(PID.TID 0000.0001) %MON forcing_qnet_mean            =  -1.6388061820512E+02
(PID.TID 0000.0001) %MON forcing_qnet_sd              =   7.7259205111939E+02
(PID.TID 0000.0001) %MON forcing_qnet_del2            =   2.0184501229993E+01
(PID.TID 0000.0001) %MON forcing_qsw_max              =   0.0000000000000E+00
(PID.TID 0000.0001) %MON forcing_qsw_min              =  -1.0476443499233E+02
(PID.TID 0000.0001) %MON forcing_qsw_mean             =  -2.1475230733326E+01
(PID.TID 0000.0001) %MON forcing_qsw_sd               =   2.9869709415995E+01
(PID.TID 0000.0001) %MON forcing_qsw_del2             =   1.7619407475701E-01
(PID.TID 0000.0001) %MON forcing_empmr_max            =   9.4975838437676E-03
(PID.TID 0000.0001) %MON forcing_empmr_min            =  -1.3649922609329E-01
(PID.TID 0000.0001) %MON forcing_empmr_mean           =  -5.4955444874092E-04
(PID.TID 0000.0001) %MON forcing_empmr_sd             =   6.0206043963120E-03
(PID.TID 0000.0001) %MON forcing_empmr_del2           =   2.3818946477561E-04
(PID.TID 0000.0001) %MON forcing_fu_max               =   9.6626677857182E-01
(PID.TID 0000.0001) %MON forcing_fu_min               =  -5.8756624684496E-01
(PID.TID 0000.0001) %MON forcing_fu_mean              =  -1.3760011986694E-03
(PID.TID 0000.0001) %MON forcing_fu_sd                =   1.0528627741791E-01
(PID.TID 0000.0001) %MON forcing_fu_del2              =   9.0292191618108E-04
(PID.TID 0000.0001) %MON forcing_fv_max               =   4.5744305287486E-01
(PID.TID 0000.0001) %MON forcing_fv_min               =  -5.7019249440207E-01
(PID.TID 0000.0001) %MON forcing_fv_mean              =  -4.5515093212346E-03
(PID.TID 0000.0001) %MON forcing_fv_sd                =   8.8864340305234E-02
(PID.TID 0000.0001) %MON forcing_fv_del2              =   7.9190497508167E-04
(PID.TID 0000.0001) %MON trAdv_CFL_u_max              =   6.4671363816714E-03
(PID.TID 0000.0001) %MON trAdv_CFL_v_max              =   7.3486946104846E-03
(PID.TID 0000.0001) %MON trAdv_CFL_w_max              =   5.7509031121024E-03
(PID.TID 0000.0001) %MON advcfl_uvel_max              =   6.5291076717257E-03
(PID.TID 0000.0001) %MON advcfl_vvel_max              =   3.8116678567668E-03
(PID.TID 0000.0001) %MON advcfl_wvel_max              =   4.7477991684623E-03
(PID.TID 0000.0001) %MON advcfl_W_hf_max              =   5.7509031121024E-03
(PID.TID 0000.0001) %MON pe_b_mean                    =   1.7626030688071E-05
(PID.TID 0000.0001) %MON ke_max                       =   1.1978318209779E+00
(PID.TID 0000.0001) %MON ke_mean                      =   5.2283258893748E-05
(PID.TID 0000.0001) %MON ke_vol                       =   1.3398092175688E+18
(PID.TID 0000.0001) %MON vort_r_min                   =  -9.0304902250018E-06
(PID.TID 0000.0001) %MON vort_r_max                   =   2.7175594766043E-06
(PID.TID 0000.0001) %MON vort_a_mean                  =  -2.0549865324846E-05
(PID.TID 0000.0001) %MON vort_a_sd                    =   7.5259265063775E-05
(PID.TID 0000.0001) %MON vort_p_mean                  =  -2.4783400155008E-05
(PID.TID 0000.0001) %MON vort_p_sd                    =   1.2810596799591E-04
(PID.TID 0000.0001) %MON surfExpan_theta_mean         =   1.2142165040724E-06
(PID.TID 0000.0001) %MON surfExpan_salt_mean          =   6.2596221008113E-07
(PID.TID 0000.0001) // =======================================================
(PID.TID 0000.0001) // End MONITOR dynamic field statistics
(PID.TID 0000.0001) // =======================================================
(PID.TID 0000.0001) // =======================================================
(PID.TID 0000.0001) // Begin MONITOR SEAICE statistics
(PID.TID 0000.0001) // =======================================================
(PID.TID 0000.0001) %MON seaice_tsnumber              =                    16
(PID.TID 0000.0001) %MON seaice_time_sec              =   1.4400000000000E+04
(PID.TID 0000.0001) %MON seaice_uice_max              =   1.9080251805703E+00
(PID.TID 0000.0001) %MON seaice_uice_min              =  -5.4810254665119E-01
(PID.TID 0000.0001) %MON seaice_uice_mean             =   4.3338163884218E-04
(PID.TID 0000.0001) %MON seaice_uice_sd               =   5.8645960353793E-02
(PID.TID 0000.0001) %MON seaice_uice_del2             =   1.4890635146830E-03
(PID.TID 0000.0001) %MON seaice_vice_max              =   1.1952985327889E+00
(PID.TID 0000.0001) %MON seaice_vice_min              =  -1.4387236085500E+00
(PID.TID 0000.0001) %MON seaice_vice_mean             =  -4.4729845483794E-03
(PID.TID 0000.0001) %MON seaice_vice_sd               =   5.1052187929417E-02
(PID.TID 0000.0001) %MON seaice_vice_del2             =   1.5882926952947E-03
(PID.TID 0000.0001) %MON seaice_area_max              =   9.9867369699991E-01
(PID.TID 0000.0001) %MON seaice_area_min              =   0.0000000000000E+00
(PID.TID 0000.0001) %MON seaice_area_mean             =   6.7270122771162E-02
(PID.TID 0000.0001) %MON seaice_area_sd               =   2.3207963647865E-01
(PID.TID 0000.0001) %MON seaice_area_del2             =   1.7260352836253E-03
(PID.TID 0000.0001) %MON seaice_heff_max              =   8.3958949353317E+00
(PID.TID 0000.0001) %MON seaice_heff_min              =   0.0000000000000E+00
(PID.TID 0000.0001) %MON seaice_heff_mean             =   2.0303591765823E-01
(PID.TID 0000.0001) %MON seaice_heff_sd               =   9.6933136287205E-01
(PID.TID 0000.0001) %MON seaice_heff_del2             =   6.2042677359420E-03
(PID.TID 0000.0001) %MON seaice_hsnow_max             =   2.0207374731005E+00
(PID.TID 0000.0001) %MON seaice_hsnow_min             =   0.0000000000000E+00
(PID.TID 0000.0001) %MON seaice_hsnow_mean            =   2.2522104176144E-02
(PID.TID 0000.0001) %MON seaice_hsnow_sd              =   1.1870617109871E-01
(PID.TID 0000.0001) %MON seaice_hsnow_del2            =   1.4553758160088E-03
(PID.TID 0000.0001) // =======================================================
(PID.TID 0000.0001) // End MONITOR SEAICE statistics
(PID.TID 0000.0001) // =======================================================
 Compute Stats, Diag. #    211  SIarea    vol(   0 ): 1.456E+15  Parms: SM      M1      
 Compute Stats, Diag. #    214  SIheff    vol(   0 ): 1.456E+15  Parms: SM      M1      
 Compute Stats, Diag. #    216  SIhsnow   vol(   0 ): 1.456E+15  Parms: SM      M1      
 Compute Stats, Diag. #     83  sIceLoad  vol(   0 ): 1.456E+15  Parms: SM      U1      
 Compute Stats, Diag. #    220  SIuice    vol(   0 ): 1.383E+15  Parms: UU      M1      
 Compute Stats, Diag. #    221  SIvice    vol(   0 ): 1.391E+15  Parms: VV      M1      
 Compute Stats, Diag. #    222  SItaux    vol(   0 ): 1.383E+15  Parms: UU      U1      
 Compute Stats, Diag. #    223  SItauy    vol(   0 ): 1.391E+15  Parms: VV      U1      
 Compute Stats, Diag. #    282  SIareaN   vol(   0 ): 7.278E+15  Parms: SM      MX      
 Compute Stats, Diag. #    281  SIheffN   vol(   0 ): 7.278E+15  Parms: SM      MX      
 Compute Stats, Diag. #    283  SIhsnowN  vol(   0 ): 7.278E+15  Parms: SM      MX      
 Compute Stats, Diag. #    287  SIqSnow   vol(   0 ): 7.278E+15  Parms: SM      MX      
 Compute Stats, Diag. #    286  SIqIce    vol(   0 ): 2.911E+16  Parms: SM      MX      
 Compute Stats, Diag. #    288  SImeltPd  vol(   0 ): 7.278E+15  Parms: SM      MX      
 Compute Stats, Diag. #    285  SItIces   vol(   0 ): 7.278E+15  Parms: SM      MX      
 Compute Stats, Diag. #    289  SIiceAge  vol(   0 ): 7.278E+15  Parms: SM      MX      
 Compute Stats, Diag. #    290  SI_dArea  vol(   0 ): 7.278E+15  Parms: SM      MX      
 Compute Stats, Diag. #    291  SI_dHeff  vol(   0 ): 7.278E+15  Parms: SM      MX      
 Compute Stats, Diag. #    292  SI_dHsnw  vol(   0 ): 7.278E+15  Parms: SM      MX      
 Compute Stats, Diag. #    295  SI_dQSnw  vol(   0 ): 7.278E+15  Parms: SM      MX      
 Compute Stats, Diag. #    294  SI_dQIce  vol(   0 ): 2.911E+16  Parms: SM      MX      
 SEAICE_LSR: Residual Initial ipass,Uice,Vice=    1  3.72893905E-03  3.60850099E-03
 SEAICE_LSR (ipass=   1) iters,dU,Resid=     6  5.03623374E-06  3.62411318E-05
 SEAICE_LSR (ipass=   1) iters,dV,Resid=     6  4.61376371E-05  7.93225627E-06
 SEAICE_LSR: Residual Initial ipass,Uice,Vice=    2  2.62901611E-03  1.79425962E-03
 SEAICE_LSR (ipass=   2) iters,dU,Resid=     4  2.13480289E-05  5.01385451E-05
 SEAICE_LSR (ipass=   2) iters,dV,Resid=     4  4.29252043E-05  1.45770556E-05
 cg2d: Sum(rhs),rhsMax =  -1.96385939125250E+01  8.57284166859266E+01
(PID.TID 0000.0001)      cg2d_init_res =   3.42171919397803E-01
(PID.TID 0000.0001)      cg2d_iters(min,last) =      -1      10
(PID.TID 0000.0001)      cg2d_last_res =   9.23067641021529E-08
(PID.TID 0000.0001) // =======================================================
(PID.TID 0000.0001) // Begin MONITOR dynamic field statistics
(PID.TID 0000.0001) // =======================================================
(PID.TID 0000.0001) %MON time_tsnumber                =                    17
(PID.TID 0000.0001) %MON time_secondsf                =   1.5300000000000E+04
(PID.TID 0000.0001) %MON dynstat_eta_max              =   3.9204176081709E+00
(PID.TID 0000.0001) %MON dynstat_eta_min              =  -2.2890224420505E+00
(PID.TID 0000.0001) %MON dynstat_eta_mean             =   1.9563041037042E-02
(PID.TID 0000.0001) %MON dynstat_eta_sd               =   1.1694175780425E-01
(PID.TID 0000.0001) %MON dynstat_eta_del2             =   3.3070788084871E-03
(PID.TID 0000.0001) %MON dynstat_uvel_max             =   1.8742163078999E+00
(PID.TID 0000.0001) %MON dynstat_uvel_min             =  -7.4121848945665E-01
(PID.TID 0000.0001) %MON dynstat_uvel_mean            =   4.3650332718299E-04
(PID.TID 0000.0001) %MON dynstat_uvel_sd              =   7.8144620920352E-03
(PID.TID 0000.0001) %MON dynstat_uvel_del2            =   1.2213088583434E-04
(PID.TID 0000.0001) %MON dynstat_vvel_max             =   1.0257256709123E+00
(PID.TID 0000.0001) %MON dynstat_vvel_min             =  -1.1393608643034E+00
(PID.TID 0000.0001) %MON dynstat_vvel_mean            =   4.5589586132428E-06
(PID.TID 0000.0001) %MON dynstat_vvel_sd              =   6.8847870135989E-03
(PID.TID 0000.0001) %MON dynstat_vvel_del2            =   1.1951227013208E-04
(PID.TID 0000.0001) %MON dynstat_wvel_max             =   2.9601453601571E-04
(PID.TID 0000.0001) %MON dynstat_wvel_min             =  -5.3546103991053E-04
(PID.TID 0000.0001) %MON dynstat_wvel_mean            =  -3.0098969630765E-07
(PID.TID 0000.0001) %MON dynstat_wvel_sd              =   9.2741666372160E-06
(PID.TID 0000.0001) %MON dynstat_wvel_del2            =   8.6285995123565E-08
(PID.TID 0000.0001) %MON dynstat_theta_max            =   2.0588338623841E+01
(PID.TID 0000.0001) %MON dynstat_theta_min            =   1.6160774641013E+01
(PID.TID 0000.0001) %MON dynstat_theta_mean           =   1.9997778337631E+01
(PID.TID 0000.0001) %MON dynstat_theta_sd             =   1.9080892772514E-02
(PID.TID 0000.0001) %MON dynstat_theta_del2           =   2.9583147016178E-04
(PID.TID 0000.0001) %MON dynstat_salt_max             =   3.5072151360400E+01
(PID.TID 0000.0001) %MON dynstat_salt_min             =   3.2537813789131E+01
(PID.TID 0000.0001) %MON dynstat_salt_mean            =   3.4999818840335E+01
(PID.TID 0000.0001) %MON dynstat_salt_sd              =   1.2046061959518E-02
(PID.TID 0000.0001) %MON dynstat_salt_del2            =   3.2184231411824E-04
(PID.TID 0000.0001) %MON dynstat_sst_max              =   2.0588338623841E+01
(PID.TID 0000.0001) %MON dynstat_sst_min              =   1.6160774641013E+01
(PID.TID 0000.0001) %MON dynstat_sst_mean             =   2.0007116740967E+01
(PID.TID 0000.0001) %MON dynstat_sst_sd               =   1.3196032379060E-01
(PID.TID 0000.0001) %MON dynstat_sst_del2             =   3.3527149716212E-03
(PID.TID 0000.0001) %MON dynstat_sss_max              =   3.5072151360400E+01
(PID.TID 0000.0001) %MON dynstat_sss_min              =   3.2537813789131E+01
(PID.TID 0000.0001) %MON dynstat_sss_mean             =   3.4992571273153E+01
(PID.TID 0000.0001) %MON dynstat_sss_sd               =   1.0242547905379E-01
(PID.TID 0000.0001) %MON dynstat_sss_del2             =   4.0400117891610E-03
(PID.TID 0000.0001) %MON forcing_qnet_max             =   5.9916806719216E+03
(PID.TID 0000.0001) %MON forcing_qnet_min             =  -7.0744377411264E+03
(PID.TID 0000.0001) %MON forcing_qnet_mean            =  -1.5390051095780E+02
(PID.TID 0000.0001) %MON forcing_qnet_sd              =   7.2042054758445E+02
(PID.TID 0000.0001) %MON forcing_qnet_del2            =   1.2725481267550E+01
(PID.TID 0000.0001) %MON forcing_qsw_max              =   0.0000000000000E+00
(PID.TID 0000.0001) %MON forcing_qsw_min              =  -1.0584028433812E+02
(PID.TID 0000.0001) %MON forcing_qsw_mean             =  -2.1184062633560E+01
(PID.TID 0000.0001) %MON forcing_qsw_sd               =   2.9752781778128E+01
(PID.TID 0000.0001) %MON forcing_qsw_del2             =   1.8494303106067E-01
(PID.TID 0000.0001) %MON forcing_empmr_max            =   9.3996720388532E-03
(PID.TID 0000.0001) %MON forcing_empmr_min            =  -1.3509291410446E-01
(PID.TID 0000.0001) %MON forcing_empmr_mean           =  -5.4557729484654E-04
(PID.TID 0000.0001) %MON forcing_empmr_sd             =   5.9592509617663E-03
(PID.TID 0000.0001) %MON forcing_empmr_del2           =   2.3573983888640E-04
(PID.TID 0000.0001) %MON forcing_fu_max               =   9.4662951351831E-01
(PID.TID 0000.0001) %MON forcing_fu_min               =  -5.9409698652749E-01
(PID.TID 0000.0001) %MON forcing_fu_mean              =  -1.1895690779080E-03
(PID.TID 0000.0001) %MON forcing_fu_sd                =   1.0441764696153E-01
(PID.TID 0000.0001) %MON forcing_fu_del2              =   8.9065663214251E-04
(PID.TID 0000.0001) %MON forcing_fv_max               =   4.5703153812573E-01
(PID.TID 0000.0001) %MON forcing_fv_min               =  -5.7046259876004E-01
(PID.TID 0000.0001) %MON forcing_fv_mean              =  -4.2673255205803E-03
(PID.TID 0000.0001) %MON forcing_fv_sd                =   8.8203260823001E-02
(PID.TID 0000.0001) %MON forcing_fv_del2              =   7.8371499619125E-04
(PID.TID 0000.0001) %MON trAdv_CFL_u_max              =   6.2079282932898E-03
(PID.TID 0000.0001) %MON trAdv_CFL_v_max              =   6.6804176784323E-03
(PID.TID 0000.0001) %MON trAdv_CFL_w_max              =   5.4476093746399E-03
(PID.TID 0000.0001) %MON advcfl_uvel_max              =   6.2500740065548E-03
(PID.TID 0000.0001) %MON advcfl_vvel_max              =   3.4144017848927E-03
(PID.TID 0000.0001) %MON advcfl_wvel_max              =   4.6988839688508E-03
(PID.TID 0000.0001) %MON advcfl_W_hf_max              =   5.4476093746399E-03
(PID.TID 0000.0001) %MON pe_b_mean                    =   1.8727873060655E-05
(PID.TID 0000.0001) %MON ke_max                       =   1.0503425318183E+00
(PID.TID 0000.0001) %MON ke_mean                      =   5.0133362527110E-05
(PID.TID 0000.0001) %MON ke_vol                       =   1.3398093914606E+18
(PID.TID 0000.0001) %MON vort_r_min                   =  -9.1440997209464E-06
(PID.TID 0000.0001) %MON vort_r_max                   =   2.6914792607169E-06
(PID.TID 0000.0001) %MON vort_a_mean                  =  -2.0549865324846E-05
(PID.TID 0000.0001) %MON vort_a_sd                    =   7.5259264438851E-05
(PID.TID 0000.0001) %MON vort_p_mean                  =  -2.4783396682102E-05
(PID.TID 0000.0001) %MON vort_p_sd                    =   1.2810593312771E-04
(PID.TID 0000.0001) %MON surfExpan_theta_mean         =   1.0644534963038E-06
(PID.TID 0000.0001) %MON surfExpan_salt_mean          =   6.4639273233142E-07
(PID.TID 0000.0001) // =======================================================
(PID.TID 0000.0001) // End MONITOR dynamic field statistics
(PID.TID 0000.0001) // =======================================================
(PID.TID 0000.0001) // =======================================================
(PID.TID 0000.0001) // Begin MONITOR SEAICE statistics
(PID.TID 0000.0001) // =======================================================
(PID.TID 0000.0001) %MON seaice_tsnumber              =                    17
(PID.TID 0000.0001) %MON seaice_time_sec              =   1.5300000000000E+04
(PID.TID 0000.0001) %MON seaice_uice_max              =   1.8340765293816E+00
(PID.TID 0000.0001) %MON seaice_uice_min              =  -5.0514990227751E-01
(PID.TID 0000.0001) %MON seaice_uice_mean             =   2.8964434025020E-04
(PID.TID 0000.0001) %MON seaice_uice_sd               =   5.7752673739364E-02
(PID.TID 0000.0001) %MON seaice_uice_del2             =   1.4296170402104E-03
(PID.TID 0000.0001) %MON seaice_vice_max              =   1.1100329747831E+00
(PID.TID 0000.0001) %MON seaice_vice_min              =  -1.3245530793468E+00
(PID.TID 0000.0001) %MON seaice_vice_mean             =  -4.5991485179014E-03
(PID.TID 0000.0001) %MON seaice_vice_sd               =   5.0133761564175E-02
(PID.TID 0000.0001) %MON seaice_vice_del2             =   1.4649818420828E-03
(PID.TID 0000.0001) %MON seaice_area_max              =   9.9856002764484E-01
(PID.TID 0000.0001) %MON seaice_area_min              =   0.0000000000000E+00
(PID.TID 0000.0001) %MON seaice_area_mean             =   6.7175908231133E-02
(PID.TID 0000.0001) %MON seaice_area_sd               =   2.3182271494812E-01
(PID.TID 0000.0001) %MON seaice_area_del2             =   1.7216616679988E-03
(PID.TID 0000.0001) %MON seaice_heff_max              =   8.3932907708359E+00
(PID.TID 0000.0001) %MON seaice_heff_min              =   0.0000000000000E+00
(PID.TID 0000.0001) %MON seaice_heff_mean             =   2.0286081147500E-01
(PID.TID 0000.0001) %MON seaice_heff_sd               =   9.6885492789404E-01
(PID.TID 0000.0001) %MON seaice_heff_del2             =   6.2027339452689E-03
(PID.TID 0000.0001) %MON seaice_hsnow_max             =   2.0200497654443E+00
(PID.TID 0000.0001) %MON seaice_hsnow_min             =   0.0000000000000E+00
(PID.TID 0000.0001) %MON seaice_hsnow_mean            =   2.2503197058944E-02
(PID.TID 0000.0001) %MON seaice_hsnow_sd              =   1.1864717771143E-01
(PID.TID 0000.0001) %MON seaice_hsnow_del2            =   1.4546849843909E-03
(PID.TID 0000.0001) // =======================================================
(PID.TID 0000.0001) // End MONITOR SEAICE statistics
(PID.TID 0000.0001) // =======================================================
 Computing Diagnostic #    211  SIarea       Counter:       1   Parms: SM      M1      
 Computing Diagnostic #    214  SIheff       Counter:       1   Parms: SM      M1      
 Computing Diagnostic #    216  SIhsnow      Counter:       1   Parms: SM      M1      
 Computing Diagnostic #     83  sIceLoad     Counter:       1   Parms: SM      U1      
 Computing Diagnostic #    220  SIuice       Counter:       1   Parms: UU      M1      
           Vector  Mate for  SIuice       Diagnostic #    221  SIvice   exists 
 Computing Diagnostic #    221  SIvice       Counter:       1   Parms: VV      M1      
           Vector  Mate for  SIvice       Diagnostic #    220  SIuice   exists 
 Computing Diagnostic #    222  SItaux       Counter:       1   Parms: UU      U1      
           Vector  Mate for  SItaux       Diagnostic #    223  SItauy   exists 
 Computing Diagnostic #    223  SItauy       Counter:       1   Parms: VV      U1      
           Vector  Mate for  SItauy       Diagnostic #    222  SItaux   exists 
 Computing Diagnostic #    284  CPLoWGHT     Counter:       1   Parms: SM      M1      
 Computing Diagnostic #    282  SIareaN      Counter:       1   Parms: SM      MX      
 Computing Diagnostic #    281  SIheffN      Counter:       1   Parms: SM      MX      
 Computing Diagnostic #    283  SIhsnowN     Counter:       1   Parms: SM      MX      
 Computing Diagnostic #    287  SIqSnow      Counter:       1   Parms: SM      MX      
 Computing Diagnostic #    288  SImeltPd     Counter:       1   Parms: SM      MX      
 Computing Diagnostic #    285  SItIces      Counter:       1   Parms: SM      MX      
 Computing Diagnostic #    289  SIiceAge     Counter:       1   Parms: SM      MX      
 Computing Diagnostic #    290  SI_dArea     Counter:       1   Parms: SM      MX      
 Computing Diagnostic #    291  SI_dHeff     Counter:       1   Parms: SM      MX      
 Computing Diagnostic #    292  SI_dHsnw     Counter:       1   Parms: SM      MX      
 Computing Diagnostic #    295  SI_dQSnw     Counter:       1   Parms: SM      MX      
 Computing Diagnostic #    286  SIqIce       Counter:       1   Parms: SM      MX      
 Computing Diagnostic #    294  SI_dQIce     Counter:       1   Parms: SM      MX      
 SEAICE_LSR: Residual Initial ipass,Uice,Vice=    1  4.32327172E-03  3.91872800E-03
 SEAICE_LSR (ipass=   1) iters,dU,Resid=     6  2.85561873E-05  3.98559153E-05
 SEAICE_LSR (ipass=   1) iters,dV,Resid=     6  4.44457289E-05  8.00433217E-06
 SEAICE_LSR: Residual Initial ipass,Uice,Vice=    2  3.09136534E-03  1.94070168E-03
 SEAICE_LSR (ipass=   2) iters,dU,Resid=     4  3.40337473E-05  5.29700009E-05
 SEAICE_LSR (ipass=   2) iters,dV,Resid=     4  3.36146526E-05  1.48693829E-05
 cg2d: Sum(rhs),rhsMax =  -1.95677762925945E+01  8.81105452474532E+01
(PID.TID 0000.0001)      cg2d_init_res =   3.13147201986648E-01
(PID.TID 0000.0001)      cg2d_iters(min,last) =      -1      10
(PID.TID 0000.0001)      cg2d_last_res =   9.00388730742386E-08
(PID.TID 0000.0001) // =======================================================
(PID.TID 0000.0001) // Begin MONITOR dynamic field statistics
(PID.TID 0000.0001) // =======================================================
(PID.TID 0000.0001) %MON time_tsnumber                =                    18
(PID.TID 0000.0001) %MON time_secondsf                =   1.6200000000000E+04
(PID.TID 0000.0001) %MON dynstat_eta_max              =   4.0275990113431E+00
(PID.TID 0000.0001) %MON dynstat_eta_min              =  -2.8444728385296E+00
(PID.TID 0000.0001) %MON dynstat_eta_mean             =   2.0034132265705E-02
(PID.TID 0000.0001) %MON dynstat_eta_sd               =   1.2126462146065E-01
(PID.TID 0000.0001) %MON dynstat_eta_del2             =   3.4749645444722E-03
(PID.TID 0000.0001) %MON dynstat_uvel_max             =   1.7705811518932E+00
(PID.TID 0000.0001) %MON dynstat_uvel_min             =  -7.0858513827377E-01
(PID.TID 0000.0001) %MON dynstat_uvel_mean            =   4.4483592634902E-04
(PID.TID 0000.0001) %MON dynstat_uvel_sd              =   7.5835468703116E-03
(PID.TID 0000.0001) %MON dynstat_uvel_del2            =   1.1609012091704E-04
(PID.TID 0000.0001) %MON dynstat_vvel_max             =   9.1586643907454E-01
(PID.TID 0000.0001) %MON dynstat_vvel_min             =  -9.9144002509217E-01
(PID.TID 0000.0001) %MON dynstat_vvel_mean            =   1.3222535886331E-05
(PID.TID 0000.0001) %MON dynstat_vvel_sd              =   6.7857227617588E-03
(PID.TID 0000.0001) %MON dynstat_vvel_del2            =   1.1054832245050E-04
(PID.TID 0000.0001) %MON dynstat_wvel_max             =   2.8752941903311E-04
(PID.TID 0000.0001) %MON dynstat_wvel_min             =  -5.0230700035274E-04
(PID.TID 0000.0001) %MON dynstat_wvel_mean            =  -3.2496457516863E-07
(PID.TID 0000.0001) %MON dynstat_wvel_sd              =   9.2776746779531E-06
(PID.TID 0000.0001) %MON dynstat_wvel_del2            =   8.5522171241454E-08
(PID.TID 0000.0001) %MON dynstat_theta_max            =   2.0619438491658E+01
(PID.TID 0000.0001) %MON dynstat_theta_min            =   1.6143527715861E+01
(PID.TID 0000.0001) %MON dynstat_theta_mean           =   1.9997787118683E+01
(PID.TID 0000.0001) %MON dynstat_theta_sd             =   1.9165700784127E-02
(PID.TID 0000.0001) %MON dynstat_theta_del2           =   2.9756883082470E-04
(PID.TID 0000.0001) %MON dynstat_salt_max             =   3.5073062512580E+01
(PID.TID 0000.0001) %MON dynstat_salt_min             =   3.2422046314729E+01
(PID.TID 0000.0001) %MON dynstat_salt_mean            =   3.4999813268776E+01
(PID.TID 0000.0001) %MON dynstat_salt_sd              =   1.2600811031147E-02
(PID.TID 0000.0001) %MON dynstat_salt_del2            =   3.3688400940585E-04
(PID.TID 0000.0001) %MON dynstat_sst_max              =   2.0619438491658E+01
(PID.TID 0000.0001) %MON dynstat_sst_min              =   1.6143527715861E+01
(PID.TID 0000.0001) %MON dynstat_sst_mean             =   2.0008855079510E+01
(PID.TID 0000.0001) %MON dynstat_sst_sd               =   1.3324037472368E-01
(PID.TID 0000.0001) %MON dynstat_sst_del2             =   3.3747154103120E-03
(PID.TID 0000.0001) %MON dynstat_sss_max              =   3.5073062512580E+01
(PID.TID 0000.0001) %MON dynstat_sss_min              =   3.2422046314729E+01
(PID.TID 0000.0001) %MON dynstat_sss_mean             =   3.4992231115429E+01
(PID.TID 0000.0001) %MON dynstat_sss_sd               =   1.0719790598714E-01
(PID.TID 0000.0001) %MON dynstat_sss_del2             =   4.2290612575800E-03
(PID.TID 0000.0001) %MON forcing_qnet_max             =   5.9122442104847E+03
(PID.TID 0000.0001) %MON forcing_qnet_min             =  -6.9837941291539E+03
(PID.TID 0000.0001) %MON forcing_qnet_mean            =  -1.4711154232950E+02
(PID.TID 0000.0001) %MON forcing_qnet_sd              =   7.1108893568322E+02
(PID.TID 0000.0001) %MON forcing_qnet_del2            =   1.2459762058625E+01
(PID.TID 0000.0001) %MON forcing_qsw_max              =   0.0000000000000E+00
(PID.TID 0000.0001) %MON forcing_qsw_min              =  -1.0625375799384E+02
(PID.TID 0000.0001) %MON forcing_qsw_mean             =  -2.0925961281096E+01
(PID.TID 0000.0001) %MON forcing_qsw_sd               =   2.9483130214550E+01
(PID.TID 0000.0001) %MON forcing_qsw_del2             =   1.8832832768430E-01
(PID.TID 0000.0001) %MON forcing_empmr_max            =   9.3027930706739E-03
(PID.TID 0000.0001) %MON forcing_empmr_min            =  -1.3370004296303E-01
(PID.TID 0000.0001) %MON forcing_empmr_mean           =  -5.4175491296236E-04
(PID.TID 0000.0001) %MON forcing_empmr_sd             =   5.8986123948560E-03
(PID.TID 0000.0001) %MON forcing_empmr_del2           =   2.3331890606206E-04
(PID.TID 0000.0001) %MON forcing_fu_max               =   9.4604332015380E-01
(PID.TID 0000.0001) %MON forcing_fu_min               =  -5.9620658931737E-01
(PID.TID 0000.0001) %MON forcing_fu_mean              =  -9.5981325104352E-04
(PID.TID 0000.0001) %MON forcing_fu_sd                =   1.0370103799797E-01
(PID.TID 0000.0001) %MON forcing_fu_del2              =   8.8078434532331E-04
(PID.TID 0000.0001) %MON forcing_fv_max               =   4.5963062614144E-01
(PID.TID 0000.0001) %MON forcing_fv_min               =  -5.6822677449516E-01
(PID.TID 0000.0001) %MON forcing_fv_mean              =  -4.0353836279046E-03
(PID.TID 0000.0001) %MON forcing_fv_sd                =   8.7576676453675E-02
(PID.TID 0000.0001) %MON forcing_fv_del2              =   7.7630119291806E-04
(PID.TID 0000.0001) %MON trAdv_CFL_u_max              =   5.8802945954268E-03
(PID.TID 0000.0001) %MON trAdv_CFL_v_max              =   5.9194160311686E-03
(PID.TID 0000.0001) %MON trAdv_CFL_w_max              =   5.1446433914364E-03
(PID.TID 0000.0001) %MON advcfl_uvel_max              =   5.9044749463012E-03
(PID.TID 0000.0001) %MON advcfl_vvel_max              =   2.9711171388693E-03
(PID.TID 0000.0001) %MON advcfl_wvel_max              =   4.6504362769749E-03
(PID.TID 0000.0001) %MON advcfl_W_hf_max              =   5.1446433914364E-03
(PID.TID 0000.0001) %MON pe_b_mean                    =   2.0124509222248E-05
(PID.TID 0000.0001) %MON ke_max                       =   8.9631182566561E-01
(PID.TID 0000.0001) %MON ke_mean                      =   4.7875109244170E-05
(PID.TID 0000.0001) %MON ke_vol                       =   1.3398095640939E+18
(PID.TID 0000.0001) %MON vort_r_min                   =  -9.1309873977931E-06
(PID.TID 0000.0001) %MON vort_r_max                   =   2.7831872034808E-06
(PID.TID 0000.0001) %MON vort_a_mean                  =  -2.0549865324846E-05
(PID.TID 0000.0001) %MON vort_a_sd                    =   7.5259263491322E-05
(PID.TID 0000.0001) %MON vort_p_mean                  =  -2.4783393270410E-05
(PID.TID 0000.0001) %MON vort_p_sd                    =   1.2810589644102E-04
(PID.TID 0000.0001) %MON surfExpan_theta_mean         =   9.0778899469812E-07
(PID.TID 0000.0001) %MON surfExpan_salt_mean          =   6.6487182879777E-07
(PID.TID 0000.0001) // =======================================================
(PID.TID 0000.0001) // End MONITOR dynamic field statistics
(PID.TID 0000.0001) // =======================================================
(PID.TID 0000.0001) // =======================================================
(PID.TID 0000.0001) // Begin MONITOR SEAICE statistics
(PID.TID 0000.0001) // =======================================================
(PID.TID 0000.0001) %MON seaice_tsnumber              =                    18
(PID.TID 0000.0001) %MON seaice_time_sec              =   1.6200000000000E+04
(PID.TID 0000.0001) %MON seaice_uice_max              =   1.7402792819031E+00
(PID.TID 0000.0001) %MON seaice_uice_min              =  -4.8659890207312E-01
(PID.TID 0000.0001) %MON seaice_uice_mean             =   1.1724152879935E-04
(PID.TID 0000.0001) %MON seaice_uice_sd               =   5.6591873265877E-02
(PID.TID 0000.0001) %MON seaice_uice_del2             =   1.3623611183613E-03
(PID.TID 0000.0001) %MON seaice_vice_max              =   1.0124270895460E+00
(PID.TID 0000.0001) %MON seaice_vice_min              =  -1.1907452737293E+00
(PID.TID 0000.0001) %MON seaice_vice_mean             =  -4.7222943133158E-03
(PID.TID 0000.0001) %MON seaice_vice_sd               =   4.9277394582834E-02
(PID.TID 0000.0001) %MON seaice_vice_del2             =   1.3421994259216E-03
(PID.TID 0000.0001) %MON seaice_area_max              =   9.9843889428742E-01
(PID.TID 0000.0001) %MON seaice_area_min              =   0.0000000000000E+00
(PID.TID 0000.0001) %MON seaice_area_mean             =   6.7081749253666E-02
(PID.TID 0000.0001) %MON seaice_area_sd               =   2.3156621539937E-01
(PID.TID 0000.0001) %MON seaice_area_del2             =   1.7173498030091E-03
(PID.TID 0000.0001) %MON seaice_heff_max              =   8.3906860986630E+00
(PID.TID 0000.0001) %MON seaice_heff_min              =   0.0000000000000E+00
(PID.TID 0000.0001) %MON seaice_heff_mean             =   2.0268575855569E-01
(PID.TID 0000.0001) %MON seaice_heff_sd               =   9.6837798304452E-01
(PID.TID 0000.0001) %MON seaice_heff_del2             =   6.2011953472846E-03
(PID.TID 0000.0001) %MON seaice_hsnow_max             =   2.0193542703519E+00
(PID.TID 0000.0001) %MON seaice_hsnow_min             =   0.0000000000000E+00
(PID.TID 0000.0001) %MON seaice_hsnow_mean            =   2.2484206844303E-02
(PID.TID 0000.0001) %MON seaice_hsnow_sd              =   1.1858810551168E-01
(PID.TID 0000.0001) %MON seaice_hsnow_del2            =   1.4539914071891E-03
(PID.TID 0000.0001) // =======================================================
(PID.TID 0000.0001) // End MONITOR SEAICE statistics
(PID.TID 0000.0001) // =======================================================
 SEAICE_LSR: Residual Initial ipass,Uice,Vice=    1  4.90550909E-03  4.22942631E-03
 SEAICE_LSR (ipass=   1) iters,dU,Resid=     6  3.72617197E-05  3.88960962E-05
 SEAICE_LSR (ipass=   1) iters,dV,Resid=     6  2.21274096E-05  5.89120273E-06
 SEAICE_LSR: Residual Initial ipass,Uice,Vice=    2  3.41616709E-03  2.02571014E-03
 SEAICE_LSR (ipass=   2) iters,dU,Resid=     4  5.18569836E-05  4.71408580E-05
 SEAICE_LSR (ipass=   2) iters,dV,Resid=     4  9.41196401E-06  1.40135930E-05
 cg2d: Sum(rhs),rhsMax =  -1.97056576508316E+01  8.95368713771753E+01
(PID.TID 0000.0001)      cg2d_init_res =   2.87395385423228E-01
(PID.TID 0000.0001)      cg2d_iters(min,last) =      -1      10
(PID.TID 0000.0001)      cg2d_last_res =   8.58882134507059E-08
(PID.TID 0000.0001) // =======================================================
(PID.TID 0000.0001) // Begin MONITOR dynamic field statistics
(PID.TID 0000.0001) // =======================================================
(PID.TID 0000.0001) %MON time_tsnumber                =                    19
(PID.TID 0000.0001) %MON time_secondsf                =   1.7100000000000E+04
(PID.TID 0000.0001) %MON dynstat_eta_max              =   4.0915054769026E+00
(PID.TID 0000.0001) %MON dynstat_eta_min              =  -3.3254139560073E+00
(PID.TID 0000.0001) %MON dynstat_eta_mean             =   2.0501895793276E-02
(PID.TID 0000.0001) %MON dynstat_eta_sd               =   1.2576609433901E-01
(PID.TID 0000.0001) %MON dynstat_eta_del2             =   3.6195501950937E-03
(PID.TID 0000.0001) %MON dynstat_uvel_max             =   1.6479906606191E+00
(PID.TID 0000.0001) %MON dynstat_uvel_min             =  -6.7034444472524E-01
(PID.TID 0000.0001) %MON dynstat_uvel_mean            =   4.4884035383721E-04
(PID.TID 0000.0001) %MON dynstat_uvel_sd              =   7.3331631865424E-03
(PID.TID 0000.0001) %MON dynstat_uvel_del2            =   1.0958276178080E-04
(PID.TID 0000.0001) %MON dynstat_vvel_max             =   7.9836206037729E-01
(PID.TID 0000.0001) %MON dynstat_vvel_min             =  -8.3134600486988E-01
(PID.TID 0000.0001) %MON dynstat_vvel_mean            =   1.9634045602399E-05
(PID.TID 0000.0001) %MON dynstat_vvel_sd              =   6.7068993611197E-03
(PID.TID 0000.0001) %MON dynstat_vvel_del2            =   1.0296379686074E-04
(PID.TID 0000.0001) %MON dynstat_wvel_max             =   2.6537877768878E-04
(PID.TID 0000.0001) %MON dynstat_wvel_min             =  -4.6286560458284E-04
(PID.TID 0000.0001) %MON dynstat_wvel_mean            =  -3.4737015373254E-07
(PID.TID 0000.0001) %MON dynstat_wvel_sd              =   9.1974167093667E-06
(PID.TID 0000.0001) %MON dynstat_wvel_del2            =   8.4357182983519E-08
(PID.TID 0000.0001) %MON dynstat_theta_max            =   2.0650187558055E+01
(PID.TID 0000.0001) %MON dynstat_theta_min            =   1.6128246718494E+01
(PID.TID 0000.0001) %MON dynstat_theta_mean           =   1.9997795583893E+01
(PID.TID 0000.0001) %MON dynstat_theta_sd             =   1.9257996739221E-02
(PID.TID 0000.0001) %MON dynstat_theta_del2           =   2.9925208009762E-04
(PID.TID 0000.0001) %MON dynstat_salt_max             =   3.5073898230563E+01
(PID.TID 0000.0001) %MON dynstat_salt_min             =   3.2308997056997E+01
(PID.TID 0000.0001) %MON dynstat_salt_mean            =   3.4999807784737E+01
(PID.TID 0000.0001) %MON dynstat_salt_sd              =   1.3143861084168E-02
(PID.TID 0000.0001) %MON dynstat_salt_del2            =   3.5158127520958E-04
(PID.TID 0000.0001) %MON dynstat_sst_max              =   2.0650187558055E+01
(PID.TID 0000.0001) %MON dynstat_sst_min              =   1.6128246718494E+01
(PID.TID 0000.0001) %MON dynstat_sst_mean             =   2.0010533633804E+01
(PID.TID 0000.0001) %MON dynstat_sst_sd               =   1.3451304404100E-01
(PID.TID 0000.0001) %MON dynstat_sst_del2             =   3.3962563173382E-03
(PID.TID 0000.0001) %MON dynstat_sss_max              =   3.5073898230563E+01
(PID.TID 0000.0001) %MON dynstat_sss_min              =   3.2308997056997E+01
(PID.TID 0000.0001) %MON dynstat_sss_mean             =   3.4991895096953E+01
(PID.TID 0000.0001) %MON dynstat_sss_sd               =   1.1186732692469E-01
(PID.TID 0000.0001) %MON dynstat_sss_del2             =   4.4137702176880E-03
(PID.TID 0000.0001) %MON forcing_qnet_max             =   5.8338296179222E+03
(PID.TID 0000.0001) %MON forcing_qnet_min             =  -6.8959283821742E+03
(PID.TID 0000.0001) %MON forcing_qnet_mean            =  -1.4172009477285E+02
(PID.TID 0000.0001) %MON forcing_qnet_sd              =   7.0439143616763E+02
(PID.TID 0000.0001) %MON forcing_qnet_del2            =   1.2524364722781E+01
(PID.TID 0000.0001) %MON forcing_qsw_max              =   0.0000000000000E+00
(PID.TID 0000.0001) %MON forcing_qsw_min              =  -1.0623864377000E+02
(PID.TID 0000.0001) %MON forcing_qsw_mean             =  -2.0616830786446E+01
(PID.TID 0000.0001) %MON forcing_qsw_sd               =   2.9158252113769E+01
(PID.TID 0000.0001) %MON forcing_qsw_del2             =   1.9124926156601E-01
(PID.TID 0000.0001) %MON forcing_empmr_max            =   9.2068491503596E-03
(PID.TID 0000.0001) %MON forcing_empmr_min            =  -1.3232225179672E-01
(PID.TID 0000.0001) %MON forcing_empmr_mean           =  -5.3792805670630E-04
(PID.TID 0000.0001) %MON forcing_empmr_sd             =   5.8387793406480E-03
(PID.TID 0000.0001) %MON forcing_empmr_del2           =   2.3093000728889E-04
(PID.TID 0000.0001) %MON forcing_fu_max               =   9.3117568607243E-01
(PID.TID 0000.0001) %MON forcing_fu_min               =  -6.0798910146011E-01
(PID.TID 0000.0001) %MON forcing_fu_mean              =  -7.9710453246621E-04
(PID.TID 0000.0001) %MON forcing_fu_sd                =   1.0290991085815E-01
(PID.TID 0000.0001) %MON forcing_fu_del2              =   8.6993428888902E-04
(PID.TID 0000.0001) %MON forcing_fv_max               =   4.5718004193051E-01
(PID.TID 0000.0001) %MON forcing_fv_min               =  -5.6251781736886E-01
(PID.TID 0000.0001) %MON forcing_fv_mean              =  -3.8809530748330E-03
(PID.TID 0000.0001) %MON forcing_fv_sd                =   8.6864479169032E-02
(PID.TID 0000.0001) %MON forcing_fv_del2              =   7.6736940500524E-04
(PID.TID 0000.0001) %MON trAdv_CFL_u_max              =   5.4872916686948E-03
(PID.TID 0000.0001) %MON trAdv_CFL_v_max              =   5.0827018400574E-03
(PID.TID 0000.0001) %MON trAdv_CFL_w_max              =   4.8416630221501E-03
(PID.TID 0000.0001) %MON advcfl_uvel_max              =   5.4956642664807E-03
(PID.TID 0000.0001) %MON advcfl_vvel_max              =   2.6350788795457E-03
(PID.TID 0000.0001) %MON advcfl_wvel_max              =   4.6025131059730E-03
(PID.TID 0000.0001) %MON advcfl_W_hf_max              =   4.8416630221501E-03
(PID.TID 0000.0001) %MON pe_b_mean                    =   2.1631150619588E-05
(PID.TID 0000.0001) %MON ke_max                       =   7.8212357084581E-01
(PID.TID 0000.0001) %MON ke_mean                      =   4.5667640131087E-05
(PID.TID 0000.0001) %MON ke_vol                       =   1.3398097355178E+18
(PID.TID 0000.0001) %MON vort_r_min                   =  -8.9915433901220E-06
(PID.TID 0000.0001) %MON vort_r_max                   =   2.8555714608077E-06
(PID.TID 0000.0001) %MON vort_a_mean                  =  -2.0549865324846E-05
(PID.TID 0000.0001) %MON vort_a_sd                    =   7.5259262069336E-05
(PID.TID 0000.0001) %MON vort_p_mean                  =  -2.4783389899380E-05
(PID.TID 0000.0001) %MON vort_p_sd                    =   1.2810585908199E-04
(PID.TID 0000.0001) %MON surfExpan_theta_mean         =   7.4672799943081E-07
(PID.TID 0000.0001) %MON surfExpan_salt_mean          =   6.8145479084492E-07
(PID.TID 0000.0001) // =======================================================
(PID.TID 0000.0001) // End MONITOR dynamic field statistics
(PID.TID 0000.0001) // =======================================================
(PID.TID 0000.0001) // =======================================================
(PID.TID 0000.0001) // Begin MONITOR SEAICE statistics
(PID.TID 0000.0001) // =======================================================
(PID.TID 0000.0001) %MON seaice_tsnumber              =                    19
(PID.TID 0000.0001) %MON seaice_time_sec              =   1.7100000000000E+04
(PID.TID 0000.0001) %MON seaice_uice_max              =   1.6277918474117E+00
(PID.TID 0000.0001) %MON seaice_uice_min              =  -4.6082653545825E-01
(PID.TID 0000.0001) %MON seaice_uice_mean             =  -8.3925025325817E-05
(PID.TID 0000.0001) %MON seaice_uice_sd               =   5.5182951133016E-02
(PID.TID 0000.0001) %MON seaice_uice_del2             =   1.2893480258206E-03
(PID.TID 0000.0001) %MON seaice_vice_max              =   9.0474210607738E-01
(PID.TID 0000.0001) %MON seaice_vice_min              =  -1.0406784527514E+00
(PID.TID 0000.0001) %MON seaice_vice_mean             =  -4.8436302155642E-03
(PID.TID 0000.0001) %MON seaice_vice_sd               =   4.8570543489696E-02
(PID.TID 0000.0001) %MON seaice_vice_del2             =   1.2269283124179E-03
(PID.TID 0000.0001) %MON seaice_area_max              =   9.9831028603843E-01
(PID.TID 0000.0001) %MON seaice_area_min              =   0.0000000000000E+00
(PID.TID 0000.0001) %MON seaice_area_mean             =   6.6987646920707E-02
(PID.TID 0000.0001) %MON seaice_area_sd               =   2.3131009129113E-01
(PID.TID 0000.0001) %MON seaice_area_del2             =   1.7130877448681E-03
(PID.TID 0000.0001) %MON seaice_heff_max              =   8.3880809168094E+00
(PID.TID 0000.0001) %MON seaice_heff_min              =   0.0000000000000E+00
(PID.TID 0000.0001) %MON seaice_heff_mean             =   2.0251072584531E-01
(PID.TID 0000.0001) %MON seaice_heff_sd               =   9.6790056837762E-01
(PID.TID 0000.0001) %MON seaice_heff_del2             =   6.1996568752254E-03
(PID.TID 0000.0001) %MON seaice_hsnow_max             =   2.0186649083520E+00
(PID.TID 0000.0001) %MON seaice_hsnow_min             =   0.0000000000000E+00
(PID.TID 0000.0001) %MON seaice_hsnow_mean            =   2.2465189821354E-02
(PID.TID 0000.0001) %MON seaice_hsnow_sd              =   1.1852916865598E-01
(PID.TID 0000.0001) %MON seaice_hsnow_del2            =   1.4533038532396E-03
(PID.TID 0000.0001) // =======================================================
(PID.TID 0000.0001) // End MONITOR SEAICE statistics
(PID.TID 0000.0001) // =======================================================
 SEAICE_LSR: Residual Initial ipass,Uice,Vice=    1  5.41969879E-03  4.37796555E-03
 SEAICE_LSR (ipass=   1) iters,dU,Resid=     6  3.98905053E-05  3.44175919E-05
 SEAICE_LSR (ipass=   1) iters,dV,Resid=     6  7.45667841E-06  5.20088983E-06
 SEAICE_LSR: Residual Initial ipass,Uice,Vice=    2  3.64066119E-03  1.99943717E-03
 SEAICE_LSR (ipass=   2) iters,dU,Resid=     4  6.04425667E-05  3.55856490E-05
 SEAICE_LSR (ipass=   2) iters,dV,Resid=     4  4.99132404E-05  1.52614960E-05
 cg2d: Sum(rhs),rhsMax =  -2.00508230312865E+01  8.99907825927554E+01
(PID.TID 0000.0001)      cg2d_init_res =   2.62930436905390E-01
(PID.TID 0000.0001)      cg2d_iters(min,last) =      -1      10
(PID.TID 0000.0001)      cg2d_last_res =   7.70517455800951E-08
(PID.TID 0000.0001) // =======================================================
(PID.TID 0000.0001) // Begin MONITOR dynamic field statistics
(PID.TID 0000.0001) // =======================================================
(PID.TID 0000.0001) %MON time_tsnumber                =                    20
(PID.TID 0000.0001) %MON time_secondsf                =   1.8000000000000E+04
(PID.TID 0000.0001) %MON dynstat_eta_max              =   4.1113653462534E+00
(PID.TID 0000.0001) %MON dynstat_eta_min              =  -3.7278605379236E+00
(PID.TID 0000.0001) %MON dynstat_eta_mean             =   2.0966763948103E-02
(PID.TID 0000.0001) %MON dynstat_eta_sd               =   1.2991756702082E-01
(PID.TID 0000.0001) %MON dynstat_eta_del2             =   3.7358445171865E-03
(PID.TID 0000.0001) %MON dynstat_uvel_max             =   1.5077654004202E+00
(PID.TID 0000.0001) %MON dynstat_uvel_min             =  -6.2742887979613E-01
(PID.TID 0000.0001) %MON dynstat_uvel_mean            =   4.4841084536871E-04
(PID.TID 0000.0001) %MON dynstat_uvel_sd              =   7.0726964644888E-03
(PID.TID 0000.0001) %MON dynstat_uvel_del2            =   1.0287144913932E-04
(PID.TID 0000.0001) %MON dynstat_vvel_max             =   6.7563805859139E-01
(PID.TID 0000.0001) %MON dynstat_vvel_min             =  -8.3996543505224E-01
(PID.TID 0000.0001) %MON dynstat_vvel_mean            =   2.2707872730908E-05
(PID.TID 0000.0001) %MON dynstat_vvel_sd              =   6.6614538889048E-03
(PID.TID 0000.0001) %MON dynstat_vvel_del2            =   9.7148163677588E-05
(PID.TID 0000.0001) %MON dynstat_wvel_max             =   2.2198051314999E-04
(PID.TID 0000.0001) %MON dynstat_wvel_min             =  -4.2016561414174E-04
(PID.TID 0000.0001) %MON dynstat_wvel_mean            =  -3.6594591595027E-07
(PID.TID 0000.0001) %MON dynstat_wvel_sd              =   9.0710795729272E-06
(PID.TID 0000.0001) %MON dynstat_wvel_del2            =   8.3059411247928E-08
(PID.TID 0000.0001) %MON dynstat_theta_max            =   2.0680590631763E+01
(PID.TID 0000.0001) %MON dynstat_theta_min            =   1.6115050598990E+01
(PID.TID 0000.0001) %MON dynstat_theta_mean           =   1.9997803735579E+01
(PID.TID 0000.0001) %MON dynstat_theta_sd             =   1.9356769012552E-02
(PID.TID 0000.0001) %MON dynstat_theta_del2           =   3.0087242998554E-04
(PID.TID 0000.0001) %MON dynstat_salt_max             =   3.5074672944109E+01
(PID.TID 0000.0001) %MON dynstat_salt_min             =   3.2198596754551E+01
(PID.TID 0000.0001) %MON dynstat_salt_mean            =   3.4999802385675E+01
(PID.TID 0000.0001) %MON dynstat_salt_sd              =   1.3675356455508E-02
(PID.TID 0000.0001) %MON dynstat_salt_del2            =   3.6593977716621E-04
(PID.TID 0000.0001) %MON dynstat_sst_max              =   2.0680590631763E+01
(PID.TID 0000.0001) %MON dynstat_sst_min              =   1.6115050598990E+01
(PID.TID 0000.0001) %MON dynstat_sst_mean             =   2.0012169668451E+01
(PID.TID 0000.0001) %MON dynstat_sst_sd               =   1.3577386551825E-01
(PID.TID 0000.0001) %MON dynstat_sst_del2             =   3.4172190431524E-03
(PID.TID 0000.0001) %MON dynstat_sss_max              =   3.5074672944109E+01
(PID.TID 0000.0001) %MON dynstat_sss_min              =   3.2198596754551E+01
(PID.TID 0000.0001) %MON dynstat_sss_mean             =   3.4991567492966E+01
(PID.TID 0000.0001) %MON dynstat_sss_sd               =   1.1643602567919E-01
(PID.TID 0000.0001) %MON dynstat_sss_del2             =   4.5942166837038E-03
(PID.TID 0000.0001) %MON forcing_qnet_max             =   5.7564256354313E+03
(PID.TID 0000.0001) %MON forcing_qnet_min             =  -6.8091534618329E+03
(PID.TID 0000.0001) %MON forcing_qnet_mean            =  -1.3638487595950E+02
(PID.TID 0000.0001) %MON forcing_qnet_sd              =   7.0060070455621E+02
(PID.TID 0000.0001) %MON forcing_qnet_del2            =   1.3036541099198E+01
(PID.TID 0000.0001) %MON forcing_qsw_max              =   0.0000000000000E+00
(PID.TID 0000.0001) %MON forcing_qsw_min              =  -1.0579502594828E+02
(PID.TID 0000.0001) %MON forcing_qsw_mean             =  -2.0259827387984E+01
(PID.TID 0000.0001) %MON forcing_qsw_sd               =   2.8781151891192E+01
(PID.TID 0000.0001) %MON forcing_qsw_del2             =   1.9365278849080E-01
(PID.TID 0000.0001) %MON forcing_empmr_max            =   9.1119399294257E-03
(PID.TID 0000.0001) %MON forcing_empmr_min            =  -1.3095958530903E-01
(PID.TID 0000.0001) %MON forcing_empmr_mean           =  -5.3459837805178E-04
(PID.TID 0000.0001) %MON forcing_empmr_sd             =   5.7797299485817E-03
(PID.TID 0000.0001) %MON forcing_empmr_del2           =   2.2857493031524E-04
(PID.TID 0000.0001) %MON forcing_fu_max               =   9.2606536282784E-01
(PID.TID 0000.0001) %MON forcing_fu_min               =  -6.1549099455221E-01
(PID.TID 0000.0001) %MON forcing_fu_mean              =  -6.4312588431076E-04
(PID.TID 0000.0001) %MON forcing_fu_sd                =   1.0225421766401E-01
(PID.TID 0000.0001) %MON forcing_fu_del2              =   8.6142794831949E-04
(PID.TID 0000.0001) %MON forcing_fv_max               =   4.6592692176645E-01
(PID.TID 0000.0001) %MON forcing_fv_min               =  -5.5747540916542E-01
(PID.TID 0000.0001) %MON forcing_fv_mean              =  -3.7553740603386E-03
(PID.TID 0000.0001) %MON forcing_fv_sd                =   8.6260806754236E-02
(PID.TID 0000.0001) %MON forcing_fv_del2              =   7.6011115709364E-04
(PID.TID 0000.0001) %MON trAdv_CFL_u_max              =   5.0328915291382E-03
(PID.TID 0000.0001) %MON trAdv_CFL_v_max              =   4.1885799691978E-03
(PID.TID 0000.0001) %MON trAdv_CFL_w_max              =   4.5374859982613E-03
(PID.TID 0000.0001) %MON advcfl_uvel_max              =   5.0280457476696E-03
(PID.TID 0000.0001) %MON advcfl_vvel_max              =   2.8701663039107E-03
(PID.TID 0000.0001) %MON advcfl_wvel_max              =   4.5551160107488E-03
(PID.TID 0000.0001) %MON advcfl_W_hf_max              =   4.5374859982613E-03
(PID.TID 0000.0001) %MON pe_b_mean                    =   2.3070886842703E-05
(PID.TID 0000.0001) %MON ke_max                       =   7.1578293091748E-01
(PID.TID 0000.0001) %MON ke_mean                      =   4.3661872164343E-05
(PID.TID 0000.0001) %MON ke_vol                       =   1.3398099057307E+18
(PID.TID 0000.0001) %MON vort_r_min                   =  -8.7289715368237E-06
(PID.TID 0000.0001) %MON vort_r_max                   =   2.9081302140778E-06
(PID.TID 0000.0001) %MON vort_a_mean                  =  -2.0549865324846E-05
(PID.TID 0000.0001) %MON vort_a_sd                    =   7.5259260050606E-05
(PID.TID 0000.0001) %MON vort_p_mean                  =  -2.4783386555083E-05
(PID.TID 0000.0001) %MON vort_p_sd                    =   1.2810582095993E-04
(PID.TID 0000.0001) %MON surfExpan_theta_mean         =   5.8372983218982E-07
(PID.TID 0000.0001) %MON surfExpan_salt_mean          =   6.9627011749435E-07
(PID.TID 0000.0001) // =======================================================
(PID.TID 0000.0001) // End MONITOR dynamic field statistics
(PID.TID 0000.0001) // =======================================================
(PID.TID 0000.0001) // =======================================================
(PID.TID 0000.0001) // Begin MONITOR SEAICE statistics
(PID.TID 0000.0001) // =======================================================
(PID.TID 0000.0001) %MON seaice_tsnumber              =                    20
(PID.TID 0000.0001) %MON seaice_time_sec              =   1.8000000000000E+04
(PID.TID 0000.0001) %MON seaice_uice_max              =   1.4977335828324E+00
(PID.TID 0000.0001) %MON seaice_uice_min              =  -4.2862538537428E-01
(PID.TID 0000.0001) %MON seaice_uice_mean             =  -3.2018850301445E-04
(PID.TID 0000.0001) %MON seaice_uice_sd               =   5.3617612375070E-02
(PID.TID 0000.0001) %MON seaice_uice_del2             =   1.2141008078367E-03
(PID.TID 0000.0001) %MON seaice_vice_max              =   7.8935857616774E-01
(PID.TID 0000.0001) %MON seaice_vice_min              =  -8.7777164427646E-01
(PID.TID 0000.0001) %MON seaice_vice_mean             =  -4.9748062103436E-03
(PID.TID 0000.0001) %MON seaice_vice_sd               =   4.8111815529664E-02
(PID.TID 0000.0001) %MON seaice_vice_del2             =   1.1262391827329E-03
(PID.TID 0000.0001) %MON seaice_area_max              =   9.9817426553741E-01
(PID.TID 0000.0001) %MON seaice_area_min              =   0.0000000000000E+00
(PID.TID 0000.0001) %MON seaice_area_mean             =   6.6893601922571E-02
(PID.TID 0000.0001) %MON seaice_area_sd               =   2.3105428342317E-01
(PID.TID 0000.0001) %MON seaice_area_del2             =   1.7088628775517E-03
(PID.TID 0000.0001) %MON seaice_heff_max              =   8.3854751999167E+00
(PID.TID 0000.0001) %MON seaice_heff_min              =   0.0000000000000E+00
(PID.TID 0000.0001) %MON seaice_heff_mean             =   2.0233571260927E-01
(PID.TID 0000.0001) %MON seaice_heff_sd               =   9.6742265006821E-01
(PID.TID 0000.0001) %MON seaice_heff_del2             =   6.1981113816889E-03
(PID.TID 0000.0001) %MON seaice_hsnow_max             =   2.0179768219695E+00
(PID.TID 0000.0001) %MON seaice_hsnow_min             =   0.0000000000000E+00
(PID.TID 0000.0001) %MON seaice_hsnow_mean            =   2.2446192085974E-02
(PID.TID 0000.0001) %MON seaice_hsnow_sd              =   1.1847016003399E-01
(PID.TID 0000.0001) %MON seaice_hsnow_del2            =   1.4526202841115E-03
(PID.TID 0000.0001) // =======================================================
(PID.TID 0000.0001) // End MONITOR SEAICE statistics
(PID.TID 0000.0001) // =======================================================
 Compute Stats, Diag. #    211  SIarea    vol(   0 ): 1.456E+15  Parms: SM      M1      
 Compute Stats, Diag. #    214  SIheff    vol(   0 ): 1.456E+15  Parms: SM      M1      
 Compute Stats, Diag. #    216  SIhsnow   vol(   0 ): 1.456E+15  Parms: SM      M1      
 Compute Stats, Diag. #     83  sIceLoad  vol(   0 ): 1.456E+15  Parms: SM      U1      
 Compute Stats, Diag. #    220  SIuice    vol(   0 ): 1.383E+15  Parms: UU      M1      
 Compute Stats, Diag. #    221  SIvice    vol(   0 ): 1.391E+15  Parms: VV      M1      
 Compute Stats, Diag. #    222  SItaux    vol(   0 ): 1.383E+15  Parms: UU      U1      
 Compute Stats, Diag. #    223  SItauy    vol(   0 ): 1.391E+15  Parms: VV      U1      
 Compute Stats, Diag. #    282  SIareaN   vol(   0 ): 7.278E+15  Parms: SM      MX      
 Compute Stats, Diag. #    281  SIheffN   vol(   0 ): 7.278E+15  Parms: SM      MX      
 Compute Stats, Diag. #    283  SIhsnowN  vol(   0 ): 7.278E+15  Parms: SM      MX      
 Compute Stats, Diag. #    287  SIqSnow   vol(   0 ): 7.278E+15  Parms: SM      MX      
 Compute Stats, Diag. #    286  SIqIce    vol(   0 ): 2.911E+16  Parms: SM      MX      
 Compute Stats, Diag. #    288  SImeltPd  vol(   0 ): 7.278E+15  Parms: SM      MX      
 Compute Stats, Diag. #    285  SItIces   vol(   0 ): 7.278E+15  Parms: SM      MX      
 Compute Stats, Diag. #    289  SIiceAge  vol(   0 ): 7.278E+15  Parms: SM      MX      
 Compute Stats, Diag. #    290  SI_dArea  vol(   0 ): 7.278E+15  Parms: SM      MX      
 Compute Stats, Diag. #    291  SI_dHeff  vol(   0 ): 7.278E+15  Parms: SM      MX      
 Compute Stats, Diag. #    292  SI_dHsnw  vol(   0 ): 7.278E+15  Parms: SM      MX      
 Compute Stats, Diag. #    295  SI_dQSnw  vol(   0 ): 7.278E+15  Parms: SM      MX      
 Compute Stats, Diag. #    294  SI_dQIce  vol(   0 ): 2.911E+16  Parms: SM      MX      
 SEAICE_LSR: Residual Initial ipass,Uice,Vice=    1  5.84762910E-03  4.36812762E-03
 SEAICE_LSR (ipass=   1) iters,dU,Resid=     6  3.95274071E-05  2.75951201E-05
 SEAICE_LSR (ipass=   1) iters,dV,Resid=     6  3.87215702E-05  7.22780475E-06
 SEAICE_LSR: Residual Initial ipass,Uice,Vice=    2  3.76766437E-03  2.01070564E-03
 SEAICE_LSR (ipass=   2) iters,dU,Resid=     4  6.46409563E-05  2.26933450E-05
 SEAICE_LSR (ipass=   2) iters,dV,Resid=     4  9.71246174E-05  1.81524809E-05
 cg2d: Sum(rhs),rhsMax =  -2.06106462254088E+01  8.94752642980965E+01
(PID.TID 0000.0001)      cg2d_init_res =   2.39949130238297E-01
(PID.TID 0000.0001)      cg2d_iters(min,last) =      -1      10
(PID.TID 0000.0001)      cg2d_last_res =   6.38375491868519E-08
(PID.TID 0000.0001) // =======================================================
(PID.TID 0000.0001) // Begin MONITOR dynamic field statistics
(PID.TID 0000.0001) // =======================================================
(PID.TID 0000.0001) %MON time_tsnumber                =                    21
(PID.TID 0000.0001) %MON time_secondsf                =   1.8900000000000E+04
(PID.TID 0000.0001) %MON dynstat_eta_max              =   4.0872937372542E+00
(PID.TID 0000.0001) %MON dynstat_eta_min              =  -4.0488727400369E+00
(PID.TID 0000.0001) %MON dynstat_eta_mean             =   2.1428697394204E-02
(PID.TID 0000.0001) %MON dynstat_eta_sd               =   1.3328988806884E-01
(PID.TID 0000.0001) %MON dynstat_eta_del2             =   3.8178638492224E-03
(PID.TID 0000.0001) %MON dynstat_uvel_max             =   1.3516397450531E+00
(PID.TID 0000.0001) %MON dynstat_uvel_min             =  -5.8068027610644E-01
(PID.TID 0000.0001) %MON dynstat_uvel_mean            =   4.4359214338588E-04
(PID.TID 0000.0001) %MON dynstat_uvel_sd              =   6.8127722508258E-03
(PID.TID 0000.0001) %MON dynstat_uvel_del2            =   9.6280372851044E-05
(PID.TID 0000.0001) %MON dynstat_vvel_max             =   5.5004182759535E-01
(PID.TID 0000.0001) %MON dynstat_vvel_min             =  -8.9320117029685E-01
(PID.TID 0000.0001) %MON dynstat_vvel_mean            =   2.1786422174366E-05
(PID.TID 0000.0001) %MON dynstat_vvel_sd              =   6.6599359768776E-03
(PID.TID 0000.0001) %MON dynstat_vvel_del2            =   9.3381468179680E-05
(PID.TID 0000.0001) %MON dynstat_wvel_max             =   1.6319651919684E-04
(PID.TID 0000.0001) %MON dynstat_wvel_min             =  -3.7717360603494E-04
(PID.TID 0000.0001) %MON dynstat_wvel_mean            =  -3.7836120359725E-07
(PID.TID 0000.0001) %MON dynstat_wvel_sd              =   8.9385204450047E-06
(PID.TID 0000.0001) %MON dynstat_wvel_del2            =   8.1881501243556E-08
(PID.TID 0000.0001) %MON dynstat_theta_max            =   2.0710660093782E+01
(PID.TID 0000.0001) %MON dynstat_theta_min            =   1.6104006467874E+01
(PID.TID 0000.0001) %MON dynstat_theta_mean           =   1.9997811557409E+01
(PID.TID 0000.0001) %MON dynstat_theta_sd             =   1.9460889898174E-02
(PID.TID 0000.0001) %MON dynstat_theta_del2           =   3.0241161286010E-04
(PID.TID 0000.0001) %MON dynstat_salt_max             =   3.5075403910784E+01
(PID.TID 0000.0001) %MON dynstat_salt_min             =   3.2090777761450E+01
(PID.TID 0000.0001) %MON dynstat_salt_mean            =   3.4999797086845E+01
(PID.TID 0000.0001) %MON dynstat_salt_sd              =   1.4195456685305E-02
(PID.TID 0000.0001) %MON dynstat_salt_del2            =   3.7996510883408E-04
(PID.TID 0000.0001) %MON dynstat_sst_max              =   2.0710660093782E+01
(PID.TID 0000.0001) %MON dynstat_sst_min              =   1.6104006467874E+01
(PID.TID 0000.0001) %MON dynstat_sst_mean             =   2.0013757627922E+01
(PID.TID 0000.0001) %MON dynstat_sst_sd               =   1.3701351170872E-01
(PID.TID 0000.0001) %MON dynstat_sst_del2             =   3.4371771669062E-03
(PID.TID 0000.0001) %MON dynstat_sss_max              =   3.5075403910784E+01
(PID.TID 0000.0001) %MON dynstat_sss_min              =   3.2090777761450E+01
(PID.TID 0000.0001) %MON dynstat_sss_mean             =   3.4991245959472E+01
(PID.TID 0000.0001) %MON dynstat_sss_sd               =   1.2090507209720E-01
(PID.TID 0000.0001) %MON dynstat_sss_del2             =   4.7704585407296E-03
(PID.TID 0000.0001) %MON forcing_qnet_max             =   5.6783594641677E+03
(PID.TID 0000.0001) %MON forcing_qnet_min             =  -1.2643154296875E+04
(PID.TID 0000.0001) %MON forcing_qnet_mean            =  -1.3078981562112E+02
(PID.TID 0000.0001) %MON forcing_qnet_sd              =   7.1569326769927E+02
(PID.TID 0000.0001) %MON forcing_qnet_del2            =   1.6724505655817E+01
(PID.TID 0000.0001) %MON forcing_qsw_max              =   0.0000000000000E+00
(PID.TID 0000.0001) %MON forcing_qsw_min              =  -1.1149814182558E+02
(PID.TID 0000.0001) %MON forcing_qsw_mean             =  -1.9712442667356E+01
(PID.TID 0000.0001) %MON forcing_qsw_sd               =   2.8212095337854E+01
(PID.TID 0000.0001) %MON forcing_qsw_del2             =   2.0141400246063E-01
(PID.TID 0000.0001) %MON forcing_empmr_max            =   9.0180132538080E-03
(PID.TID 0000.0001) %MON forcing_empmr_min            =  -1.2961032986641E-01
(PID.TID 0000.0001) %MON forcing_empmr_mean           =  -5.3122346301603E-04
(PID.TID 0000.0001) %MON forcing_empmr_sd             =   5.7215020607666E-03
(PID.TID 0000.0001) %MON forcing_empmr_del2           =   2.2625117587561E-04
(PID.TID 0000.0001) %MON forcing_fu_max               =   9.2498527076148E-01
(PID.TID 0000.0001) %MON forcing_fu_min               =  -6.2387075138962E-01
(PID.TID 0000.0001) %MON forcing_fu_mean              =  -4.6070738990459E-04
(PID.TID 0000.0001) %MON forcing_fu_sd                =   1.0182855008862E-01
(PID.TID 0000.0001) %MON forcing_fu_del2              =   8.5537662475350E-04
(PID.TID 0000.0001) %MON forcing_fv_max               =   4.7461839969356E-01
(PID.TID 0000.0001) %MON forcing_fv_min               =  -5.4918890241927E-01
(PID.TID 0000.0001) %MON forcing_fv_mean              =  -3.6376735800309E-03
(PID.TID 0000.0001) %MON forcing_fv_sd                =   8.5625685342821E-02
(PID.TID 0000.0001) %MON forcing_fv_del2              =   7.5192183063819E-04
(PID.TID 0000.0001) %MON trAdv_CFL_u_max              =   4.5223937530549E-03
(PID.TID 0000.0001) %MON trAdv_CFL_v_max              =   3.2560804603201E-03
(PID.TID 0000.0001) %MON trAdv_CFL_w_max              =   4.2309722423445E-03
(PID.TID 0000.0001) %MON advcfl_uvel_max              =   4.5074031216007E-03
(PID.TID 0000.0001) %MON advcfl_vvel_max              =   3.0520730908887E-03
(PID.TID 0000.0001) %MON advcfl_wvel_max              =   4.5081853866577E-03
(PID.TID 0000.0001) %MON advcfl_W_hf_max              =   4.2309722423445E-03
(PID.TID 0000.0001) %MON pe_b_mean                    =   2.4279440320027E-05
(PID.TID 0000.0001) %MON ke_max                       =   6.4892136916229E-01
(PID.TID 0000.0001) %MON ke_mean                      =   4.1992423746649E-05
(PID.TID 0000.0001) %MON ke_vol                       =   1.3398100748901E+18
(PID.TID 0000.0001) %MON vort_r_min                   =  -8.3491046462182E-06
(PID.TID 0000.0001) %MON vort_r_max                   =   2.9405178499942E-06
(PID.TID 0000.0001) %MON vort_a_mean                  =  -2.0549865324846E-05
(PID.TID 0000.0001) %MON vort_a_sd                    =   7.5259257358511E-05
(PID.TID 0000.0001) %MON vort_p_mean                  =  -2.4783383225202E-05
(PID.TID 0000.0001) %MON vort_p_sd                    =   1.2810578105631E-04
(PID.TID 0000.0001) %MON surfExpan_theta_mean         =   4.2114607054031E-07
(PID.TID 0000.0001) %MON surfExpan_salt_mean          =   7.0951438790996E-07
(PID.TID 0000.0001) // =======================================================
(PID.TID 0000.0001) // End MONITOR dynamic field statistics
(PID.TID 0000.0001) // =======================================================
(PID.TID 0000.0001) // =======================================================
(PID.TID 0000.0001) // Begin MONITOR SEAICE statistics
(PID.TID 0000.0001) // =======================================================
(PID.TID 0000.0001) %MON seaice_tsnumber              =                    21
(PID.TID 0000.0001) %MON seaice_time_sec              =   1.8900000000000E+04
(PID.TID 0000.0001) %MON seaice_uice_max              =   1.3514902188409E+00
(PID.TID 0000.0001) %MON seaice_uice_min              =  -4.1800000775546E-01
(PID.TID 0000.0001) %MON seaice_uice_mean             =  -5.7455716682327E-04
(PID.TID 0000.0001) %MON seaice_uice_sd               =   5.1982563760880E-02
(PID.TID 0000.0001) %MON seaice_uice_del2             =   1.1395618704538E-03
(PID.TID 0000.0001) %MON seaice_vice_max              =   6.6880862273000E-01
(PID.TID 0000.0001) %MON seaice_vice_min              =  -8.2525233154597E-01
(PID.TID 0000.0001) %MON seaice_vice_mean             =  -5.1226622959816E-03
(PID.TID 0000.0001) %MON seaice_vice_sd               =   4.7968910713313E-02
(PID.TID 0000.0001) %MON seaice_vice_del2             =   1.0473490892640E-03
(PID.TID 0000.0001) %MON seaice_area_max              =   9.9803092455246E-01
(PID.TID 0000.0001) %MON seaice_area_min              =   0.0000000000000E+00
(PID.TID 0000.0001) %MON seaice_area_mean             =   6.6799632819743E-02
(PID.TID 0000.0001) %MON seaice_area_sd               =   2.3079871516038E-01
(PID.TID 0000.0001) %MON seaice_area_del2             =   1.7046423718387E-03
(PID.TID 0000.0001) %MON seaice_heff_max              =   8.3828690131734E+00
(PID.TID 0000.0001) %MON seaice_heff_min              =   0.0000000000000E+00
(PID.TID 0000.0001) %MON seaice_heff_mean             =   2.0216071782149E-01
(PID.TID 0000.0001) %MON seaice_heff_sd               =   9.6694422135258E-01
(PID.TID 0000.0001) %MON seaice_heff_del2             =   6.1965573377475E-03
(PID.TID 0000.0001) %MON seaice_hsnow_max             =   2.0172922163777E+00
(PID.TID 0000.0001) %MON seaice_hsnow_min             =   0.0000000000000E+00
(PID.TID 0000.0001) %MON seaice_hsnow_mean            =   2.2427301841943E-02
(PID.TID 0000.0001) %MON seaice_hsnow_sd              =   1.1841138543137E-01
(PID.TID 0000.0001) %MON seaice_hsnow_del2            =   1.4519403454565E-03
(PID.TID 0000.0001) // =======================================================
(PID.TID 0000.0001) // End MONITOR SEAICE statistics
(PID.TID 0000.0001) // =======================================================
 Computing Diagnostic #    211  SIarea       Counter:       1   Parms: SM      M1      
 Computing Diagnostic #    214  SIheff       Counter:       1   Parms: SM      M1      
 Computing Diagnostic #    216  SIhsnow      Counter:       1   Parms: SM      M1      
 Computing Diagnostic #     83  sIceLoad     Counter:       1   Parms: SM      U1      
 Computing Diagnostic #    220  SIuice       Counter:       1   Parms: UU      M1      
           Vector  Mate for  SIuice       Diagnostic #    221  SIvice   exists 
 Computing Diagnostic #    221  SIvice       Counter:       1   Parms: VV      M1      
           Vector  Mate for  SIvice       Diagnostic #    220  SIuice   exists 
 Computing Diagnostic #    222  SItaux       Counter:       1   Parms: UU      U1      
           Vector  Mate for  SItaux       Diagnostic #    223  SItauy   exists 
 Computing Diagnostic #    223  SItauy       Counter:       1   Parms: VV      U1      
           Vector  Mate for  SItauy       Diagnostic #    222  SItaux   exists 
 Computing Diagnostic #    284  CPLoWGHT     Counter:       1   Parms: SM      M1      
 Computing Diagnostic #    282  SIareaN      Counter:       1   Parms: SM      MX      
 Computing Diagnostic #    281  SIheffN      Counter:       1   Parms: SM      MX      
 Computing Diagnostic #    283  SIhsnowN     Counter:       1   Parms: SM      MX      
 Computing Diagnostic #    287  SIqSnow      Counter:       1   Parms: SM      MX      
 Computing Diagnostic #    288  SImeltPd     Counter:       1   Parms: SM      MX      
 Computing Diagnostic #    285  SItIces      Counter:       1   Parms: SM      MX      
 Computing Diagnostic #    289  SIiceAge     Counter:       1   Parms: SM      MX      
 Computing Diagnostic #    290  SI_dArea     Counter:       1   Parms: SM      MX      
 Computing Diagnostic #    291  SI_dHeff     Counter:       1   Parms: SM      MX      
 Computing Diagnostic #    292  SI_dHsnw     Counter:       1   Parms: SM      MX      
 Computing Diagnostic #    295  SI_dQSnw     Counter:       1   Parms: SM      MX      
 Computing Diagnostic #    286  SIqIce       Counter:       1   Parms: SM      MX      
 Computing Diagnostic #    294  SI_dQIce     Counter:       1   Parms: SM      MX      
 SEAICE_LSR: Residual Initial ipass,Uice,Vice=    1  6.17427490E-03  4.38976571E-03
 SEAICE_LSR (ipass=   1) iters,dU,Resid=     6  3.93300733E-05  2.09582722E-05
 SEAICE_LSR (ipass=   1) iters,dV,Resid=     6  7.44686439E-05  1.08527774E-05
 SEAICE_LSR: Residual Initial ipass,Uice,Vice=    2  3.81731617E-03  1.99180719E-03
 SEAICE_LSR (ipass=   2) iters,dU,Resid=     6  1.88680303E-05  5.68289093E-06
 SEAICE_LSR (ipass=   2) iters,dV,Resid=     6  4.90090150E-05  7.23221896E-06
 cg2d: Sum(rhs),rhsMax =  -2.14017840844150E+01  8.80122212484627E+01
(PID.TID 0000.0001)      cg2d_init_res =   2.20851719033104E-01
(PID.TID 0000.0001)      cg2d_iters(min,last) =      -1      10
(PID.TID 0000.0001)      cg2d_last_res =   5.31214188555761E-08
(PID.TID 0000.0001) // =======================================================
(PID.TID 0000.0001) // Begin MONITOR dynamic field statistics
(PID.TID 0000.0001) // =======================================================
(PID.TID 0000.0001) %MON time_tsnumber                =                    22
(PID.TID 0000.0001) %MON time_secondsf                =   1.9800000000000E+04
(PID.TID 0000.0001) %MON dynstat_eta_max              =   4.0202631202112E+00
(PID.TID 0000.0001) %MON dynstat_eta_min              =  -4.2864853236831E+00
(PID.TID 0000.0001) %MON dynstat_eta_mean             =   2.1887397907543E-02
(PID.TID 0000.0001) %MON dynstat_eta_sd               =   1.3556913932883E-01
(PID.TID 0000.0001) %MON dynstat_eta_del2             =   3.8596795212859E-03
(PID.TID 0000.0001) %MON dynstat_uvel_max             =   1.1818204723447E+00
(PID.TID 0000.0001) %MON dynstat_uvel_min             =  -5.3095174029542E-01
(PID.TID 0000.0001) %MON dynstat_uvel_mean            =   4.3449290191767E-04
(PID.TID 0000.0001) %MON dynstat_uvel_sd              =   6.5647958227881E-03
(PID.TID 0000.0001) %MON dynstat_uvel_del2            =   9.0150721755356E-05
(PID.TID 0000.0001) %MON dynstat_vvel_max             =   4.2380278191672E-01
(PID.TID 0000.0001) %MON dynstat_vvel_min             =  -9.3092871693583E-01
(PID.TID 0000.0001) %MON dynstat_vvel_mean            =   1.6717797094882E-05
(PID.TID 0000.0001) %MON dynstat_vvel_sd              =   6.7075096721180E-03
(PID.TID 0000.0001) %MON dynstat_vvel_del2            =   9.1750688159047E-05
(PID.TID 0000.0001) %MON dynstat_wvel_max             =   1.1978976046259E-04
(PID.TID 0000.0001) %MON dynstat_wvel_min             =  -4.1739894479687E-04
(PID.TID 0000.0001) %MON dynstat_wvel_mean            =  -3.8353371049540E-07
(PID.TID 0000.0001) %MON dynstat_wvel_sd              =   8.8317122125131E-06
(PID.TID 0000.0001) %MON dynstat_wvel_del2            =   8.1014066982588E-08
(PID.TID 0000.0001) %MON dynstat_theta_max            =   2.0740392953312E+01
(PID.TID 0000.0001) %MON dynstat_theta_min            =   1.6095167385601E+01
(PID.TID 0000.0001) %MON dynstat_theta_mean           =   1.9997818908054E+01
(PID.TID 0000.0001) %MON dynstat_theta_sd             =   1.9569696122545E-02
(PID.TID 0000.0001) %MON dynstat_theta_del2           =   3.0388478403878E-04
(PID.TID 0000.0001) %MON dynstat_salt_max             =   3.5076083806008E+01
(PID.TID 0000.0001) %MON dynstat_salt_min             =   3.1985474450142E+01
(PID.TID 0000.0001) %MON dynstat_salt_mean            =   3.4999791813376E+01
(PID.TID 0000.0001) %MON dynstat_salt_sd              =   1.4704369411407E-02
(PID.TID 0000.0001) %MON dynstat_salt_del2            =   3.9366572093454E-04
(PID.TID 0000.0001) %MON dynstat_sst_max              =   2.0740392953312E+01
(PID.TID 0000.0001) %MON dynstat_sst_min              =   1.6095167385601E+01
(PID.TID 0000.0001) %MON dynstat_sst_mean             =   2.0015288424046E+01
(PID.TID 0000.0001) %MON dynstat_sst_sd               =   1.3823362421366E-01
(PID.TID 0000.0001) %MON dynstat_sst_del2             =   3.4564781600205E-03
(PID.TID 0000.0001) %MON dynstat_sss_max              =   3.5076083806008E+01
(PID.TID 0000.0001) %MON dynstat_sss_min              =   3.1985474450142E+01
(PID.TID 0000.0001) %MON dynstat_sss_mean             =   3.4990924401500E+01
(PID.TID 0000.0001) %MON dynstat_sss_sd               =   1.2527632652731E-01
(PID.TID 0000.0001) %MON dynstat_sss_del2             =   4.9426215931114E-03
(PID.TID 0000.0001) %MON forcing_qnet_max             =   5.6029490481448E+03
(PID.TID 0000.0001) %MON forcing_qnet_min             =  -6.8336679687500E+03
(PID.TID 0000.0001) %MON forcing_qnet_mean            =  -1.2282074383368E+02
(PID.TID 0000.0001) %MON forcing_qnet_sd              =   6.9049709166175E+02
(PID.TID 0000.0001) %MON forcing_qnet_del2            =   1.3181667453370E+01
(PID.TID 0000.0001) %MON forcing_qsw_max              =   0.0000000000000E+00
(PID.TID 0000.0001) %MON forcing_qsw_min              =  -1.1201330709683E+02
(PID.TID 0000.0001) %MON forcing_qsw_mean             =  -1.9467079825328E+01
(PID.TID 0000.0001) %MON forcing_qsw_sd               =   2.7895290099296E+01
(PID.TID 0000.0001) %MON forcing_qsw_del2             =   2.0347141284342E-01
(PID.TID 0000.0001) %MON forcing_empmr_max            =   8.9250216260552E-03
(PID.TID 0000.0001) %MON forcing_empmr_min            =  -1.2827450037003E-01
(PID.TID 0000.0001) %MON forcing_empmr_mean           =  -5.2750559033909E-04
(PID.TID 0000.0001) %MON forcing_empmr_sd             =   5.6641040988940E-03
(PID.TID 0000.0001) %MON forcing_empmr_del2           =   2.2395992072264E-04
(PID.TID 0000.0001) %MON forcing_fu_max               =   9.0835529802114E-01
(PID.TID 0000.0001) %MON forcing_fu_min               =  -6.2707242571364E-01
(PID.TID 0000.0001) %MON forcing_fu_mean              =  -3.1986677881268E-04
(PID.TID 0000.0001) %MON forcing_fu_sd                =   1.0127512535835E-01
(PID.TID 0000.0001) %MON forcing_fu_del2              =   8.4640645127166E-04
(PID.TID 0000.0001) %MON forcing_fv_max               =   4.8041025044591E-01
(PID.TID 0000.0001) %MON forcing_fv_min               =  -5.3887500657570E-01
(PID.TID 0000.0001) %MON forcing_fv_mean              =  -3.5653184085860E-03
(PID.TID 0000.0001) %MON forcing_fv_sd                =   8.4985231936724E-02
(PID.TID 0000.0001) %MON forcing_fv_del2              =   7.4395528026081E-04
(PID.TID 0000.0001) %MON trAdv_CFL_u_max              =   3.9627497431308E-03
(PID.TID 0000.0001) %MON trAdv_CFL_v_max              =   3.0424499874296E-03
(PID.TID 0000.0001) %MON trAdv_CFL_w_max              =   3.9218029605171E-03
(PID.TID 0000.0001) %MON advcfl_uvel_max              =   3.9410954773375E-03
(PID.TID 0000.0001) %MON advcfl_vvel_max              =   3.1809883159369E-03
(PID.TID 0000.0001) %MON advcfl_wvel_max              =   4.4617217520009E-03
(PID.TID 0000.0001) %MON advcfl_W_hf_max              =   3.9218029605171E-03
(PID.TID 0000.0001) %MON pe_b_mean                    =   2.5122260917295E-05
(PID.TID 0000.0001) %MON ke_max                       =   5.8391081592354E-01
(PID.TID 0000.0001) %MON ke_mean                      =   4.0759714038873E-05
(PID.TID 0000.0001) %MON ke_vol                       =   1.3398102429815E+18
(PID.TID 0000.0001) %MON vort_r_min                   =  -7.8602022792735E-06
(PID.TID 0000.0001) %MON vort_r_max                   =   2.9525806983401E-06
(PID.TID 0000.0001) %MON vort_a_mean                  =  -2.0549865324846E-05
(PID.TID 0000.0001) %MON vort_a_sd                    =   7.5259253977303E-05
(PID.TID 0000.0001) %MON vort_p_mean                  =  -2.4783379905990E-05
(PID.TID 0000.0001) %MON vort_p_sd                    =   1.2810573817227E-04
(PID.TID 0000.0001) %MON surfExpan_theta_mean         =   2.6130939191605E-07
(PID.TID 0000.0001) %MON surfExpan_salt_mean          =   7.2145752229553E-07
(PID.TID 0000.0001) // =======================================================
(PID.TID 0000.0001) // End MONITOR dynamic field statistics
(PID.TID 0000.0001) // =======================================================
(PID.TID 0000.0001) // =======================================================
(PID.TID 0000.0001) // Begin MONITOR SEAICE statistics
(PID.TID 0000.0001) // =======================================================
(PID.TID 0000.0001) %MON seaice_tsnumber              =                    22
(PID.TID 0000.0001) %MON seaice_time_sec              =   1.9800000000000E+04
(PID.TID 0000.0001) %MON seaice_uice_max              =   1.1906702740828E+00
(PID.TID 0000.0001) %MON seaice_uice_min              =  -4.1986702749091E-01
(PID.TID 0000.0001) %MON seaice_uice_mean             =  -8.4598335457681E-04
(PID.TID 0000.0001) %MON seaice_uice_sd               =   5.0367649200534E-02
(PID.TID 0000.0001) %MON seaice_uice_del2             =   1.0696154418960E-03
(PID.TID 0000.0001) %MON seaice_vice_max              =   5.4550426029755E-01
(PID.TID 0000.0001) %MON seaice_vice_min              =  -8.7984138015750E-01
(PID.TID 0000.0001) %MON seaice_vice_mean             =  -5.2732791628069E-03
(PID.TID 0000.0001) %MON seaice_vice_sd               =   4.8161558428872E-02
(PID.TID 0000.0001) %MON seaice_vice_del2             =   9.9517459273871E-04
(PID.TID 0000.0001) %MON seaice_area_max              =   9.9788038269504E-01
(PID.TID 0000.0001) %MON seaice_area_min              =   0.0000000000000E+00
(PID.TID 0000.0001) %MON seaice_area_mean             =   6.6705715723892E-02
(PID.TID 0000.0001) %MON seaice_area_sd               =   2.3054339742332E-01
(PID.TID 0000.0001) %MON seaice_area_del2             =   1.7004437917714E-03
(PID.TID 0000.0001) %MON seaice_heff_max              =   8.3802624097188E+00
(PID.TID 0000.0001) %MON seaice_heff_min              =   0.0000000000000E+00
(PID.TID 0000.0001) %MON seaice_heff_mean             =   2.0198576056231E-01
(PID.TID 0000.0001) %MON seaice_heff_sd               =   9.6646529649438E-01
(PID.TID 0000.0001) %MON seaice_heff_del2             =   6.1949951074454E-03
(PID.TID 0000.0001) %MON seaice_hsnow_max             =   2.0166065308085E+00
(PID.TID 0000.0001) %MON seaice_hsnow_min             =   0.0000000000000E+00
(PID.TID 0000.0001) %MON seaice_hsnow_mean            =   2.2408300821702E-02
(PID.TID 0000.0001) %MON seaice_hsnow_sd              =   1.1835245678970E-01
(PID.TID 0000.0001) %MON seaice_hsnow_del2            =   1.4512529765873E-03
(PID.TID 0000.0001) // =======================================================
(PID.TID 0000.0001) // End MONITOR SEAICE statistics
(PID.TID 0000.0001) // =======================================================
 SEAICE_LSR: Residual Initial ipass,Uice,Vice=    1  6.37204077E-03  4.34684277E-03
 SEAICE_LSR (ipass=   1) iters,dU,Resid=     6  3.36129673E-05  1.63400893E-05
 SEAICE_LSR (ipass=   1) iters,dV,Resid=     6  9.86942589E-05  1.31812559E-05
 SEAICE_LSR: Residual Initial ipass,Uice,Vice=    2  3.84742036E-03  1.94186482E-03
 SEAICE_LSR (ipass=   2) iters,dU,Resid=     6  1.69004370E-05  3.51154727E-06
 SEAICE_LSR (ipass=   2) iters,dV,Resid=     6  5.92055181E-05  8.00508433E-06
 cg2d: Sum(rhs),rhsMax =  -2.24523580119131E+01  8.56407204047766E+01
(PID.TID 0000.0001)      cg2d_init_res =   2.09360112136887E-01
(PID.TID 0000.0001)      cg2d_iters(min,last) =      -1      10
(PID.TID 0000.0001)      cg2d_last_res =   5.39069120362327E-08
(PID.TID 0000.0001) // =======================================================
(PID.TID 0000.0001) // Begin MONITOR dynamic field statistics
(PID.TID 0000.0001) // =======================================================
(PID.TID 0000.0001) %MON time_tsnumber                =                    23
(PID.TID 0000.0001) %MON time_secondsf                =   2.0700000000000E+04
(PID.TID 0000.0001) %MON dynstat_eta_max              =   3.9120243535917E+00
(PID.TID 0000.0001) %MON dynstat_eta_min              =  -4.4398056860726E+00
(PID.TID 0000.0001) %MON dynstat_eta_mean             =   2.2343100743755E-02
(PID.TID 0000.0001) %MON dynstat_eta_sd               =   1.3657957575369E-01
(PID.TID 0000.0001) %MON dynstat_eta_del2             =   3.8577084683076E-03
(PID.TID 0000.0001) %MON dynstat_uvel_max             =   1.0009912537396E+00
(PID.TID 0000.0001) %MON dynstat_uvel_min             =  -5.0436583564132E-01
(PID.TID 0000.0001) %MON dynstat_uvel_mean            =   4.2130233793728E-04
(PID.TID 0000.0001) %MON dynstat_uvel_sd              =   6.3396877746302E-03
(PID.TID 0000.0001) %MON dynstat_uvel_del2            =   8.4776103622054E-05
(PID.TID 0000.0001) %MON dynstat_vvel_max             =   3.4252196894165E-01
(PID.TID 0000.0001) %MON dynstat_vvel_min             =  -9.5328976018862E-01
(PID.TID 0000.0001) %MON dynstat_vvel_mean            =   7.8784323447597E-06
(PID.TID 0000.0001) %MON dynstat_vvel_sd              =   6.8022020190124E-03
(PID.TID 0000.0001) %MON dynstat_vvel_del2            =   9.2095464671467E-05
(PID.TID 0000.0001) %MON dynstat_wvel_max             =   1.2072661603022E-04
(PID.TID 0000.0001) %MON dynstat_wvel_min             =  -4.4414279412256E-04
(PID.TID 0000.0001) %MON dynstat_wvel_mean            =  -3.8146324692133E-07
(PID.TID 0000.0001) %MON dynstat_wvel_sd              =   8.7670555281144E-06
(PID.TID 0000.0001) %MON dynstat_wvel_del2            =   8.0534350047431E-08
(PID.TID 0000.0001) %MON dynstat_theta_max            =   2.0769793521419E+01
(PID.TID 0000.0001) %MON dynstat_theta_min            =   1.6088494619332E+01
(PID.TID 0000.0001) %MON dynstat_theta_mean           =   1.9997825875430E+01
(PID.TID 0000.0001) %MON dynstat_theta_sd             =   1.9682826082094E-02
(PID.TID 0000.0001) %MON dynstat_theta_del2           =   3.0530722460844E-04
(PID.TID 0000.0001) %MON dynstat_salt_max             =   3.5076701696563E+01
(PID.TID 0000.0001) %MON dynstat_salt_min             =   3.1882620988604E+01
(PID.TID 0000.0001) %MON dynstat_salt_mean            =   3.4999786596002E+01
(PID.TID 0000.0001) %MON dynstat_salt_sd              =   1.5202345923978E-02
(PID.TID 0000.0001) %MON dynstat_salt_del2            =   4.0705136349298E-04
(PID.TID 0000.0001) %MON dynstat_sst_max              =   2.0769793521419E+01
(PID.TID 0000.0001) %MON dynstat_sst_min              =   1.6088494619332E+01
(PID.TID 0000.0001) %MON dynstat_sst_mean             =   2.0016780872607E+01
(PID.TID 0000.0001) %MON dynstat_sst_sd               =   1.3943386274257E-01
(PID.TID 0000.0001) %MON dynstat_sst_del2             =   3.4752549733467E-03
(PID.TID 0000.0001) %MON dynstat_sss_max              =   3.5076701696563E+01
(PID.TID 0000.0001) %MON dynstat_sss_min              =   3.1882620988604E+01
(PID.TID 0000.0001) %MON dynstat_sss_mean             =   3.4990608672347E+01
(PID.TID 0000.0001) %MON dynstat_sss_sd               =   1.2955263438199E-01
(PID.TID 0000.0001) %MON dynstat_sss_del2             =   5.1108217379742E-03
(PID.TID 0000.0001) %MON forcing_qnet_max             =   5.5285147966442E+03
(PID.TID 0000.0001) %MON forcing_qnet_min             =  -6.5569596397201E+03
(PID.TID 0000.0001) %MON forcing_qnet_mean            =  -1.1635429035089E+02
(PID.TID 0000.0001) %MON forcing_qnet_sd              =   6.8229041950532E+02
(PID.TID 0000.0001) %MON forcing_qnet_del2            =   1.2993276273547E+01
(PID.TID 0000.0001) %MON forcing_qsw_max              =   0.0000000000000E+00
(PID.TID 0000.0001) %MON forcing_qsw_min              =  -1.1206410257587E+02
(PID.TID 0000.0001) %MON forcing_qsw_mean             =  -1.9177989709727E+01
(PID.TID 0000.0001) %MON forcing_qsw_sd               =   2.7540123141552E+01
(PID.TID 0000.0001) %MON forcing_qsw_del2             =   2.0492505793828E-01
(PID.TID 0000.0001) %MON forcing_empmr_max            =   8.8330144062638E-03
(PID.TID 0000.0001) %MON forcing_empmr_min            =  -1.2695378065109E-01
(PID.TID 0000.0001) %MON forcing_empmr_mean           =  -5.2405826164438E-04
(PID.TID 0000.0001) %MON forcing_empmr_sd             =   5.6075930725916E-03
(PID.TID 0000.0001) %MON forcing_empmr_del2           =   2.2170214543548E-04
(PID.TID 0000.0001) %MON forcing_fu_max               =   8.9596104536415E-01
(PID.TID 0000.0001) %MON forcing_fu_min               =  -6.1663450533994E-01
(PID.TID 0000.0001) %MON forcing_fu_mean              =  -2.2223361771759E-04
(PID.TID 0000.0001) %MON forcing_fu_sd                =   1.0046877410249E-01
(PID.TID 0000.0001) %MON forcing_fu_del2              =   8.3601813258874E-04
(PID.TID 0000.0001) %MON forcing_fv_max               =   4.8374254179146E-01
(PID.TID 0000.0001) %MON forcing_fv_min               =  -5.2557979614054E-01
(PID.TID 0000.0001) %MON forcing_fv_mean              =  -3.5056083088377E-03
(PID.TID 0000.0001) %MON forcing_fv_sd                =   8.4316634032290E-02
(PID.TID 0000.0001) %MON forcing_fv_del2              =   7.3564681141266E-04
(PID.TID 0000.0001) %MON trAdv_CFL_u_max              =   3.3627167251554E-03
(PID.TID 0000.0001) %MON trAdv_CFL_v_max              =   3.1198330784013E-03
(PID.TID 0000.0001) %MON trAdv_CFL_w_max              =   3.6108417087703E-03
(PID.TID 0000.0001) %MON advcfl_uvel_max              =   3.3380722328667E-03
(PID.TID 0000.0001) %MON advcfl_vvel_max              =   3.2573961181942E-03
(PID.TID 0000.0001) %MON advcfl_wvel_max              =   4.4157836748206E-03
(PID.TID 0000.0001) %MON advcfl_W_hf_max              =   3.6108417087703E-03
(PID.TID 0000.0001) %MON pe_b_mean                    =   2.5515443049781E-05
(PID.TID 0000.0001) %MON ke_max                       =   5.2304537670986E-01
(PID.TID 0000.0001) %MON ke_mean                      =   4.0013438485998E-05
(PID.TID 0000.0001) %MON ke_vol                       =   1.3398104098966E+18
(PID.TID 0000.0001) %MON vort_r_min                   =  -7.2727135429560E-06
(PID.TID 0000.0001) %MON vort_r_max                   =   2.9443987547911E-06
(PID.TID 0000.0001) %MON vort_a_mean                  =  -2.0549865324846E-05
(PID.TID 0000.0001) %MON vort_a_sd                    =   7.5259249957278E-05
(PID.TID 0000.0001) %MON vort_p_mean                  =  -2.4783376599705E-05
(PID.TID 0000.0001) %MON vort_p_sd                    =   1.2810569151860E-04
(PID.TID 0000.0001) %MON surfExpan_theta_mean         =   1.0650422795476E-07
(PID.TID 0000.0001) %MON surfExpan_salt_mean          =   7.3238903322636E-07
(PID.TID 0000.0001) // =======================================================
(PID.TID 0000.0001) // End MONITOR dynamic field statistics
(PID.TID 0000.0001) // =======================================================
(PID.TID 0000.0001) // =======================================================
(PID.TID 0000.0001) // Begin MONITOR SEAICE statistics
(PID.TID 0000.0001) // =======================================================
(PID.TID 0000.0001) %MON seaice_tsnumber              =                    23
(PID.TID 0000.0001) %MON seaice_time_sec              =   2.0700000000000E+04
(PID.TID 0000.0001) %MON seaice_uice_max              =   1.0174914988110E+00
(PID.TID 0000.0001) %MON seaice_uice_min              =  -4.6326332722024E-01
(PID.TID 0000.0001) %MON seaice_uice_mean             =  -1.1331843874984E-03
(PID.TID 0000.0001) %MON seaice_uice_sd               =   4.8800499699259E-02
(PID.TID 0000.0001) %MON seaice_uice_del2             =   1.0053040822270E-03
(PID.TID 0000.0001) %MON seaice_vice_max              =   4.2184904751000E-01
(PID.TID 0000.0001) %MON seaice_vice_min              =  -9.1890700164010E-01
(PID.TID 0000.0001) %MON seaice_vice_mean             =  -5.4057136843383E-03
(PID.TID 0000.0001) %MON seaice_vice_sd               =   4.8643721236768E-02
(PID.TID 0000.0001) %MON seaice_vice_del2             =   9.7216397929378E-04
(PID.TID 0000.0001) %MON seaice_area_max              =   9.9772276321228E-01
(PID.TID 0000.0001) %MON seaice_area_min              =   0.0000000000000E+00
(PID.TID 0000.0001) %MON seaice_area_mean             =   6.6611818179851E-02
(PID.TID 0000.0001) %MON seaice_area_sd               =   2.3028832476866E-01
(PID.TID 0000.0001) %MON seaice_area_del2             =   1.6962639453902E-03
(PID.TID 0000.0001) %MON seaice_heff_max              =   8.3776554123609E+00
(PID.TID 0000.0001) %MON seaice_heff_min              =   0.0000000000000E+00
(PID.TID 0000.0001) %MON seaice_heff_mean             =   2.0181083503369E-01
(PID.TID 0000.0001) %MON seaice_heff_sd               =   9.6598586079955E-01
(PID.TID 0000.0001) %MON seaice_heff_del2             =   6.1934244708798E-03
(PID.TID 0000.0001) %MON seaice_hsnow_max             =   2.0159181893027E+00
(PID.TID 0000.0001) %MON seaice_hsnow_min             =   0.0000000000000E+00
(PID.TID 0000.0001) %MON seaice_hsnow_mean            =   2.2389272756941E-02
(PID.TID 0000.0001) %MON seaice_hsnow_sd              =   1.1829348686017E-01
(PID.TID 0000.0001) %MON seaice_hsnow_del2            =   1.4505619094817E-03
(PID.TID 0000.0001) // =======================================================
(PID.TID 0000.0001) // End MONITOR SEAICE statistics
(PID.TID 0000.0001) // =======================================================
 SEAICE_LSR: Residual Initial ipass,Uice,Vice=    1  6.44835083E-03  4.24296601E-03
 SEAICE_LSR (ipass=   1) iters,dU,Resid=     8  6.57244664E-06  6.60813197E-06
 SEAICE_LSR (ipass=   1) iters,dV,Resid=     8  3.40347900E-05  4.34154877E-06
 SEAICE_LSR: Residual Initial ipass,Uice,Vice=    2  3.91331177E-03  1.86147987E-03
 SEAICE_LSR (ipass=   2) iters,dU,Resid=     6  1.50496833E-05  2.83585999E-06
 SEAICE_LSR (ipass=   2) iters,dV,Resid=     6  4.91483874E-05  5.41158509E-06
 cg2d: Sum(rhs),rhsMax =  -2.38043205106275E+01  8.24153537301053E+01
(PID.TID 0000.0001)      cg2d_init_res =   2.08633458441634E-01
(PID.TID 0000.0001)      cg2d_iters(min,last) =      -1      10
(PID.TID 0000.0001)      cg2d_last_res =   6.75897489164096E-08
(PID.TID 0000.0001) // =======================================================
(PID.TID 0000.0001) // Begin MONITOR dynamic field statistics
(PID.TID 0000.0001) // =======================================================
(PID.TID 0000.0001) %MON time_tsnumber                =                    24
(PID.TID 0000.0001) %MON time_secondsf                =   2.1600000000000E+04
(PID.TID 0000.0001) %MON dynstat_eta_max              =   3.7650330636932E+00
(PID.TID 0000.0001) %MON dynstat_eta_min              =  -4.5090209945934E+00
(PID.TID 0000.0001) %MON dynstat_eta_mean             =   2.2796338091429E-02
(PID.TID 0000.0001) %MON dynstat_eta_sd               =   1.3629222183695E-01
(PID.TID 0000.0001) %MON dynstat_eta_del2             =   3.8122568234574E-03
(PID.TID 0000.0001) %MON dynstat_uvel_max             =   8.1226619099754E-01
(PID.TID 0000.0001) %MON dynstat_uvel_min             =  -5.5511409217489E-01
(PID.TID 0000.0001) %MON dynstat_uvel_mean            =   4.0423177768120E-04
(PID.TID 0000.0001) %MON dynstat_uvel_sd              =   6.1471170625727E-03
(PID.TID 0000.0001) %MON dynstat_uvel_del2            =   8.0343854036803E-05
(PID.TID 0000.0001) %MON dynstat_vvel_max             =   3.5086757107081E-01
(PID.TID 0000.0001) %MON dynstat_vvel_min             =  -9.6048945745110E-01
(PID.TID 0000.0001) %MON dynstat_vvel_mean            =  -3.9032626948577E-06
(PID.TID 0000.0001) %MON dynstat_vvel_sd              =   6.9346708678710E-03
(PID.TID 0000.0001) %MON dynstat_vvel_del2            =   9.4038771855514E-05
(PID.TID 0000.0001) %MON dynstat_wvel_max             =   1.2544628919951E-04
(PID.TID 0000.0001) %MON dynstat_wvel_min             =  -4.5778715407819E-04
(PID.TID 0000.0001) %MON dynstat_wvel_mean            =  -3.7250394797192E-07
(PID.TID 0000.0001) %MON dynstat_wvel_sd              =   8.7418160398488E-06
(PID.TID 0000.0001) %MON dynstat_wvel_del2            =   8.0383868924506E-08
(PID.TID 0000.0001) %MON dynstat_theta_max            =   2.0798865626583E+01
(PID.TID 0000.0001) %MON dynstat_theta_min            =   1.6083939029472E+01
(PID.TID 0000.0001) %MON dynstat_theta_mean           =   1.9997832587011E+01
(PID.TID 0000.0001) %MON dynstat_theta_sd             =   1.9799800388637E-02
(PID.TID 0000.0001) %MON dynstat_theta_del2           =   3.0668465914227E-04
(PID.TID 0000.0001) %MON dynstat_salt_max             =   3.5077234914606E+01
(PID.TID 0000.0001) %MON dynstat_salt_min             =   3.1782154968192E+01
(PID.TID 0000.0001) %MON dynstat_salt_mean            =   3.4999781477441E+01
(PID.TID 0000.0001) %MON dynstat_salt_sd              =   1.5689581129624E-02
(PID.TID 0000.0001) %MON dynstat_salt_del2            =   4.2012906466710E-04
(PID.TID 0000.0001) %MON dynstat_sst_max              =   2.0798865626583E+01
(PID.TID 0000.0001) %MON dynstat_sst_min              =   1.6083939029472E+01
(PID.TID 0000.0001) %MON dynstat_sst_mean             =   2.0018225580618E+01
(PID.TID 0000.0001) %MON dynstat_sst_sd               =   1.4061438443902E-01
(PID.TID 0000.0001) %MON dynstat_sst_del2             =   3.4934971294941E-03
(PID.TID 0000.0001) %MON dynstat_sss_max              =   3.5077234914606E+01
(PID.TID 0000.0001) %MON dynstat_sss_min              =   3.1782154968192E+01
(PID.TID 0000.0001) %MON dynstat_sss_mean             =   3.4990294570546E+01
(PID.TID 0000.0001) %MON dynstat_sss_sd               =   1.3373543595243E-01
(PID.TID 0000.0001) %MON dynstat_sss_del2             =   5.2751431492819E-03
(PID.TID 0000.0001) %MON forcing_qnet_max             =   5.8960732421875E+03
(PID.TID 0000.0001) %MON forcing_qnet_min             =  -2.0057355468750E+04
(PID.TID 0000.0001) %MON forcing_qnet_mean            =  -1.1205922616642E+02
(PID.TID 0000.0001) %MON forcing_qnet_sd              =   7.1338059268715E+02
(PID.TID 0000.0001) %MON forcing_qnet_del2            =   1.9773312370512E+01
(PID.TID 0000.0001) %MON forcing_qsw_max              =   0.0000000000000E+00
(PID.TID 0000.0001) %MON forcing_qsw_min              =  -1.1165125009404E+02
(PID.TID 0000.0001) %MON forcing_qsw_mean             =  -1.8845697711455E+01
(PID.TID 0000.0001) %MON forcing_qsw_sd               =   2.7151795450394E+01
(PID.TID 0000.0001) %MON forcing_qsw_del2             =   2.0575357048445E-01
(PID.TID 0000.0001) %MON forcing_empmr_max            =   8.7419906631112E-03
(PID.TID 0000.0001) %MON forcing_empmr_min            =  -1.2564563751221E-01
(PID.TID 0000.0001) %MON forcing_empmr_mean           =  -5.2122294982549E-04
(PID.TID 0000.0001) %MON forcing_empmr_sd             =   5.5518393653099E-03
(PID.TID 0000.0001) %MON forcing_empmr_del2           =   2.1947359370753E-04
(PID.TID 0000.0001) %MON forcing_fu_max               =   8.8705153078959E-01
(PID.TID 0000.0001) %MON forcing_fu_min               =  -6.2617788300471E-01
(PID.TID 0000.0001) %MON forcing_fu_mean              =  -1.8214059694164E-04
(PID.TID 0000.0001) %MON forcing_fu_sd                =   9.9912124387583E-02
(PID.TID 0000.0001) %MON forcing_fu_del2              =   8.3042158709799E-04
(PID.TID 0000.0001) %MON forcing_fv_max               =   4.8850964312827E-01
(PID.TID 0000.0001) %MON forcing_fv_min               =  -5.1200406420359E-01
(PID.TID 0000.0001) %MON forcing_fv_mean              =  -3.4398788654528E-03
(PID.TID 0000.0001) %MON forcing_fv_sd                =   8.3727986798836E-02
(PID.TID 0000.0001) %MON forcing_fv_del2              =   7.2833962651967E-04
(PID.TID 0000.0001) %MON trAdv_CFL_u_max              =   2.7328178769504E-03
(PID.TID 0000.0001) %MON trAdv_CFL_v_max              =   3.1488189892952E-03
(PID.TID 0000.0001) %MON trAdv_CFL_w_max              =   3.3002364243485E-03
(PID.TID 0000.0001) %MON advcfl_uvel_max              =   2.7087181908292E-03
(PID.TID 0000.0001) %MON advcfl_vvel_max              =   3.2819975215601E-03
(PID.TID 0000.0001) %MON advcfl_wvel_max              =   4.3702830439029E-03
(PID.TID 0000.0001) %MON advcfl_W_hf_max              =   3.3002364243485E-03
(PID.TID 0000.0001) %MON pe_b_mean                    =   2.5438237719851E-05
(PID.TID 0000.0001) %MON ke_max                       =   4.6839785975268E-01
(PID.TID 0000.0001) %MON ke_mean                      =   3.9746564355428E-05
(PID.TID 0000.0001) %MON ke_vol                       =   1.3398105757208E+18
(PID.TID 0000.0001) %MON vort_r_min                   =  -6.5990126739212E-06
(PID.TID 0000.0001) %MON vort_r_max                   =   2.9163137450002E-06
(PID.TID 0000.0001) %MON vort_a_mean                  =  -2.0549865324846E-05
(PID.TID 0000.0001) %MON vort_a_sd                    =   7.5259245426042E-05
(PID.TID 0000.0001) %MON vort_p_mean                  =  -2.4783373309241E-05
(PID.TID 0000.0001) %MON vort_p_sd                    =   1.2810564109221E-04
(PID.TID 0000.0001) %MON surfExpan_theta_mean         =  -4.1052648927302E-08
(PID.TID 0000.0001) %MON surfExpan_salt_mean          =   7.4259033099939E-07
(PID.TID 0000.0001) // =======================================================
(PID.TID 0000.0001) // End MONITOR dynamic field statistics
(PID.TID 0000.0001) // =======================================================
(PID.TID 0000.0001) // =======================================================
(PID.TID 0000.0001) // Begin MONITOR SEAICE statistics
(PID.TID 0000.0001) // =======================================================
(PID.TID 0000.0001) %MON seaice_tsnumber              =                    24
(PID.TID 0000.0001) %MON seaice_time_sec              =   2.1600000000000E+04
(PID.TID 0000.0001) %MON seaice_uice_max              =   8.3482325676260E-01
(PID.TID 0000.0001) %MON seaice_uice_min              =  -5.1140779106562E-01
(PID.TID 0000.0001) %MON seaice_uice_mean             =  -1.4322647469573E-03
(PID.TID 0000.0001) %MON seaice_uice_sd               =   4.7367446277115E-02
(PID.TID 0000.0001) %MON seaice_uice_del2             =   9.5060572381269E-04
(PID.TID 0000.0001) %MON seaice_vice_max              =   3.4252196886495E-01
(PID.TID 0000.0001) %MON seaice_vice_min              =  -9.4258392445808E-01
(PID.TID 0000.0001) %MON seaice_vice_mean             =  -5.5491986641391E-03
(PID.TID 0000.0001) %MON seaice_vice_sd               =   4.9426327180087E-02
(PID.TID 0000.0001) %MON seaice_vice_del2             =   9.7777338874938E-04
(PID.TID 0000.0001) %MON seaice_area_max              =   9.9755812786291E-01
(PID.TID 0000.0001) %MON seaice_area_min              =   0.0000000000000E+00
(PID.TID 0000.0001) %MON seaice_area_mean             =   6.6517985216076E-02
(PID.TID 0000.0001) %MON seaice_area_sd               =   2.3003342116482E-01
(PID.TID 0000.0001) %MON seaice_area_del2             =   1.6920948899292E-03
(PID.TID 0000.0001) %MON seaice_heff_max              =   8.3750490563097E+00
(PID.TID 0000.0001) %MON seaice_heff_min              =   0.0000000000000E+00
(PID.TID 0000.0001) %MON seaice_heff_mean             =   2.0163594391498E-01
(PID.TID 0000.0001) %MON seaice_heff_sd               =   9.6550589788997E-01
(PID.TID 0000.0001) %MON seaice_heff_del2             =   6.1918439363764E-03
(PID.TID 0000.0001) %MON seaice_hsnow_max             =   2.0152256183759E+00
(PID.TID 0000.0001) %MON seaice_hsnow_min             =   0.0000000000000E+00
(PID.TID 0000.0001) %MON seaice_hsnow_mean            =   2.2370323300553E-02
(PID.TID 0000.0001) %MON seaice_hsnow_sd              =   1.1823470764375E-01
(PID.TID 0000.0001) %MON seaice_hsnow_del2            =   1.4498685671246E-03
(PID.TID 0000.0001) // =======================================================
(PID.TID 0000.0001) // End MONITOR SEAICE statistics
(PID.TID 0000.0001) // =======================================================
 Compute Stats, Diag. #    211  SIarea    vol(   0 ): 1.456E+15  Parms: SM      M1      
 Compute Stats, Diag. #    214  SIheff    vol(   0 ): 1.456E+15  Parms: SM      M1      
 Compute Stats, Diag. #    216  SIhsnow   vol(   0 ): 1.456E+15  Parms: SM      M1      
 Compute Stats, Diag. #     83  sIceLoad  vol(   0 ): 1.456E+15  Parms: SM      U1      
 Compute Stats, Diag. #    220  SIuice    vol(   0 ): 1.383E+15  Parms: UU      M1      
 Compute Stats, Diag. #    221  SIvice    vol(   0 ): 1.391E+15  Parms: VV      M1      
 Compute Stats, Diag. #    222  SItaux    vol(   0 ): 1.383E+15  Parms: UU      U1      
 Compute Stats, Diag. #    223  SItauy    vol(   0 ): 1.391E+15  Parms: VV      U1      
 Compute Stats, Diag. #    282  SIareaN   vol(   0 ): 7.278E+15  Parms: SM      MX      
 Compute Stats, Diag. #    281  SIheffN   vol(   0 ): 7.278E+15  Parms: SM      MX      
 Compute Stats, Diag. #    283  SIhsnowN  vol(   0 ): 7.278E+15  Parms: SM      MX      
 Compute Stats, Diag. #    287  SIqSnow   vol(   0 ): 7.278E+15  Parms: SM      MX      
 Compute Stats, Diag. #    286  SIqIce    vol(   0 ): 2.911E+16  Parms: SM      MX      
 Compute Stats, Diag. #    288  SImeltPd  vol(   0 ): 7.278E+15  Parms: SM      MX      
 Compute Stats, Diag. #    285  SItIces   vol(   0 ): 7.278E+15  Parms: SM      MX      
 Compute Stats, Diag. #    289  SIiceAge  vol(   0 ): 7.278E+15  Parms: SM      MX      
 Compute Stats, Diag. #    290  SI_dArea  vol(   0 ): 7.278E+15  Parms: SM      MX      
 Compute Stats, Diag. #    291  SI_dHeff  vol(   0 ): 7.278E+15  Parms: SM      MX      
 Compute Stats, Diag. #    292  SI_dHsnw  vol(   0 ): 7.278E+15  Parms: SM      MX      
 Compute Stats, Diag. #    295  SI_dQSnw  vol(   0 ): 7.278E+15  Parms: SM      MX      
 Compute Stats, Diag. #    294  SI_dQIce  vol(   0 ): 2.911E+16  Parms: SM      MX      
 SEAICE_LSR: Residual Initial ipass,Uice,Vice=    1  6.44016832E-03  4.08234108E-03
 SEAICE_LSR (ipass=   1) iters,dU,Resid=     6  2.54420213E-05  1.25018535E-05
 SEAICE_LSR (ipass=   1) iters,dV,Resid=     6  6.45250612E-05  6.53044468E-06
 SEAICE_LSR: Residual Initial ipass,Uice,Vice=    2  4.00277999E-03  1.77340310E-03
 SEAICE_LSR (ipass=   2) iters,dU,Resid=     6  1.40147910E-05  4.26840009E-06
 SEAICE_LSR (ipass=   2) iters,dV,Resid=     6  2.44458029E-05  3.48603114E-06
 cg2d: Sum(rhs),rhsMax =  -2.50554806061460E+01  7.98444892332019E+01
(PID.TID 0000.0001)      cg2d_init_res =   2.15363486649090E-01
(PID.TID 0000.0001)      cg2d_iters(min,last) =      -1      10
(PID.TID 0000.0001)      cg2d_last_res =   7.98249649382211E-08
(PID.TID 0000.0001) // =======================================================
(PID.TID 0000.0001) // Begin MONITOR dynamic field statistics
(PID.TID 0000.0001) // =======================================================
(PID.TID 0000.0001) %MON time_tsnumber                =                    25
(PID.TID 0000.0001) %MON time_secondsf                =   2.2500000000000E+04
(PID.TID 0000.0001) %MON dynstat_eta_max              =   3.5823783013036E+00
(PID.TID 0000.0001) %MON dynstat_eta_min              =  -4.4954926328010E+00
(PID.TID 0000.0001) %MON dynstat_eta_mean             =   2.3246033425099E-02
(PID.TID 0000.0001) %MON dynstat_eta_sd               =   1.3481084090565E-01
(PID.TID 0000.0001) %MON dynstat_eta_del2             =   3.7274695413469E-03
(PID.TID 0000.0001) %MON dynstat_uvel_max             =   6.1909550600428E-01
(PID.TID 0000.0001) %MON dynstat_uvel_min             =  -6.0565368164208E-01
(PID.TID 0000.0001) %MON dynstat_uvel_mean            =   3.8351542147440E-04
(PID.TID 0000.0001) %MON dynstat_uvel_sd              =   5.9929159944922E-03
(PID.TID 0000.0001) %MON dynstat_uvel_del2            =   7.6902740559820E-05
(PID.TID 0000.0001) %MON dynstat_vvel_max             =   3.5770555750588E-01
(PID.TID 0000.0001) %MON dynstat_vvel_min             =  -9.5281120407389E-01
(PID.TID 0000.0001) %MON dynstat_vvel_mean            =  -1.7463459985350E-05
(PID.TID 0000.0001) %MON dynstat_vvel_sd              =   7.0904900036714E-03
(PID.TID 0000.0001) %MON dynstat_vvel_del2            =   9.7090108054143E-05
(PID.TID 0000.0001) %MON dynstat_wvel_max             =   1.4093396838764E-04
(PID.TID 0000.0001) %MON dynstat_wvel_min             =  -4.5974306213088E-04
(PID.TID 0000.0001) %MON dynstat_wvel_mean            =  -3.5598646833977E-07
(PID.TID 0000.0001) %MON dynstat_wvel_sd              =   8.7393628748189E-06
(PID.TID 0000.0001) %MON dynstat_wvel_del2            =   8.0407992432161E-08
(PID.TID 0000.0001) %MON dynstat_theta_max            =   2.0827619276299E+01
(PID.TID 0000.0001) %MON dynstat_theta_min            =   1.6081449524194E+01
(PID.TID 0000.0001) %MON dynstat_theta_mean           =   1.9997838743898E+01
(PID.TID 0000.0001) %MON dynstat_theta_sd             =   1.9919660254224E-02
(PID.TID 0000.0001) %MON dynstat_theta_del2           =   3.0804533967743E-04
(PID.TID 0000.0001) %MON dynstat_salt_max             =   3.5077651638501E+01
(PID.TID 0000.0001) %MON dynstat_salt_min             =   3.1684014482720E+01
(PID.TID 0000.0001) %MON dynstat_salt_mean            =   3.4999776384692E+01
(PID.TID 0000.0001) %MON dynstat_salt_sd              =   1.6166227348585E-02
(PID.TID 0000.0001) %MON dynstat_salt_del2            =   4.3290825304672E-04
(PID.TID 0000.0001) %MON dynstat_sst_max              =   2.0827619276299E+01
(PID.TID 0000.0001) %MON dynstat_sst_min              =   1.6081449524194E+01
(PID.TID 0000.0001) %MON dynstat_sst_mean             =   2.0019611114653E+01
(PID.TID 0000.0001) %MON dynstat_sst_sd               =   1.4177162890710E-01
(PID.TID 0000.0001) %MON dynstat_sst_del2             =   3.5116286960014E-03
(PID.TID 0000.0001) %MON dynstat_sss_max              =   3.5077651638501E+01
(PID.TID 0000.0001) %MON dynstat_sss_min              =   3.1684014482720E+01
(PID.TID 0000.0001) %MON dynstat_sss_mean             =   3.4989979368556E+01
(PID.TID 0000.0001) %MON dynstat_sss_sd               =   1.3782595981597E-01
(PID.TID 0000.0001) %MON dynstat_sss_del2             =   5.4357094722770E-03
(PID.TID 0000.0001) %MON forcing_qnet_max             =   6.5466782226562E+03
(PID.TID 0000.0001) %MON forcing_qnet_min             =  -6.3944110098105E+03
(PID.TID 0000.0001) %MON forcing_qnet_mean            =  -1.0272329861610E+02
(PID.TID 0000.0001) %MON forcing_qnet_sd              =   6.6944738853663E+02
(PID.TID 0000.0001) %MON forcing_qnet_del2            =   1.1884462581147E+01
(PID.TID 0000.0001) %MON forcing_qsw_max              =   0.0000000000000E+00
(PID.TID 0000.0001) %MON forcing_qsw_min              =  -1.1097385736932E+02
(PID.TID 0000.0001) %MON forcing_qsw_mean             =  -1.8271350976872E+01
(PID.TID 0000.0001) %MON forcing_qsw_sd               =   2.6365654578211E+01
(PID.TID 0000.0001) %MON forcing_qsw_del2             =   2.0899593331275E-01
(PID.TID 0000.0001) %MON forcing_empmr_max            =   8.6518526077271E-03
(PID.TID 0000.0001) %MON forcing_empmr_min            =  -1.2435177713633E-01
(PID.TID 0000.0001) %MON forcing_empmr_mean           =  -5.1714963372028E-04
(PID.TID 0000.0001) %MON forcing_empmr_sd             =   5.4970874190653E-03
(PID.TID 0000.0001) %MON forcing_empmr_del2           =   2.1727483891080E-04
(PID.TID 0000.0001) %MON forcing_fu_max               =   8.6838558733407E-01
(PID.TID 0000.0001) %MON forcing_fu_min               =  -6.2981439594281E-01
(PID.TID 0000.0001) %MON forcing_fu_mean              =  -1.8005986432605E-04
(PID.TID 0000.0001) %MON forcing_fu_sd                =   9.9363662635090E-02
(PID.TID 0000.0001) %MON forcing_fu_del2              =   8.2363596945506E-04
(PID.TID 0000.0001) %MON forcing_fv_max               =   4.9237258098649E-01
(PID.TID 0000.0001) %MON forcing_fv_min               =  -4.9814083384768E-01
(PID.TID 0000.0001) %MON forcing_fv_mean              =  -3.3439713284433E-03
(PID.TID 0000.0001) %MON forcing_fv_sd                =   8.3216838786325E-02
(PID.TID 0000.0001) %MON forcing_fv_del2              =   7.2192208465348E-04
(PID.TID 0000.0001) %MON trAdv_CFL_u_max              =   2.0886633808831E-03
(PID.TID 0000.0001) %MON trAdv_CFL_v_max              =   3.2317139049249E-03
(PID.TID 0000.0001) %MON trAdv_CFL_w_max              =   2.9934303092683E-03
(PID.TID 0000.0001) %MON advcfl_uvel_max              =   2.0645390360455E-03
(PID.TID 0000.0001) %MON advcfl_vvel_max              =   3.2557608894363E-03
(PID.TID 0000.0001) %MON advcfl_wvel_max              =   4.3252792047418E-03
(PID.TID 0000.0001) %MON advcfl_W_hf_max              =   2.9934303092683E-03
(PID.TID 0000.0001) %MON pe_b_mean                    =   2.4930806052904E-05
(PID.TID 0000.0001) %MON ke_max                       =   4.2166469218228E-01
(PID.TID 0000.0001) %MON ke_mean                      =   3.9893177739557E-05
(PID.TID 0000.0001) %MON ke_vol                       =   1.3398107406479E+18
(PID.TID 0000.0001) %MON vort_r_min                   =  -5.8530921047559E-06
(PID.TID 0000.0001) %MON vort_r_max                   =   2.8689510895147E-06
(PID.TID 0000.0001) %MON vort_a_mean                  =  -2.0549865324846E-05
(PID.TID 0000.0001) %MON vort_a_sd                    =   7.5259240571488E-05
(PID.TID 0000.0001) %MON vort_p_mean                  =  -2.4783370038590E-05
(PID.TID 0000.0001) %MON vort_p_sd                    =   1.2810558794392E-04
(PID.TID 0000.0001) %MON surfExpan_theta_mean         =  -1.7937426803573E-07
(PID.TID 0000.0001) %MON surfExpan_salt_mean          =   7.5230816837429E-07
(PID.TID 0000.0001) // =======================================================
(PID.TID 0000.0001) // End MONITOR dynamic field statistics
(PID.TID 0000.0001) // =======================================================
(PID.TID 0000.0001) // =======================================================
(PID.TID 0000.0001) // Begin MONITOR SEAICE statistics
(PID.TID 0000.0001) // =======================================================
(PID.TID 0000.0001) %MON seaice_tsnumber              =                    25
(PID.TID 0000.0001) %MON seaice_time_sec              =   2.2500000000000E+04
(PID.TID 0000.0001) %MON seaice_uice_max              =   6.4649805485253E-01
(PID.TID 0000.0001) %MON seaice_uice_min              =  -5.6025051034560E-01
(PID.TID 0000.0001) %MON seaice_uice_mean             =  -1.7360980876664E-03
(PID.TID 0000.0001) %MON seaice_uice_sd               =   4.6128965228074E-02
(PID.TID 0000.0001) %MON seaice_uice_del2             =   9.0608830452547E-04
(PID.TID 0000.0001) %MON seaice_vice_max              =   3.5086757100561E-01
(PID.TID 0000.0001) %MON seaice_vice_min              =  -9.5105185498912E-01
(PID.TID 0000.0001) %MON seaice_vice_mean             =  -5.6925483602359E-03
(PID.TID 0000.0001) %MON seaice_vice_sd               =   5.0438362363499E-02
(PID.TID 0000.0001) %MON seaice_vice_del2             =   1.0068634230787E-03
(PID.TID 0000.0001) %MON seaice_area_max              =   9.9738660115380E-01
(PID.TID 0000.0001) %MON seaice_area_min              =   0.0000000000000E+00
(PID.TID 0000.0001) %MON seaice_area_mean             =   6.6424184779599E-02
(PID.TID 0000.0001) %MON seaice_area_sd               =   2.2977864147789E-01
(PID.TID 0000.0001) %MON seaice_area_del2             =   1.6879165323798E-03
(PID.TID 0000.0001) %MON seaice_heff_max              =   8.3724426192473E+00
(PID.TID 0000.0001) %MON seaice_heff_min              =   0.0000000000000E+00
(PID.TID 0000.0001) %MON seaice_heff_mean             =   2.0146107828027E-01
(PID.TID 0000.0001) %MON seaice_heff_sd               =   9.6502541758421E-01
(PID.TID 0000.0001) %MON seaice_heff_del2             =   6.1902555131108E-03
(PID.TID 0000.0001) %MON seaice_hsnow_max             =   2.0145281915487E+00
(PID.TID 0000.0001) %MON seaice_hsnow_min             =   0.0000000000000E+00
(PID.TID 0000.0001) %MON seaice_hsnow_mean            =   2.2351521143862E-02
(PID.TID 0000.0001) %MON seaice_hsnow_sd              =   1.1817606034514E-01
(PID.TID 0000.0001) %MON seaice_hsnow_del2            =   1.4491795313357E-03
(PID.TID 0000.0001) // =======================================================
(PID.TID 0000.0001) // End MONITOR SEAICE statistics
(PID.TID 0000.0001) // =======================================================
 Computing Diagnostic #    211  SIarea       Counter:       1   Parms: SM      M1      
 Computing Diagnostic #    214  SIheff       Counter:       1   Parms: SM      M1      
 Computing Diagnostic #    216  SIhsnow      Counter:       1   Parms: SM      M1      
 Computing Diagnostic #     83  sIceLoad     Counter:       1   Parms: SM      U1      
 Computing Diagnostic #    220  SIuice       Counter:       1   Parms: UU      M1      
           Vector  Mate for  SIuice       Diagnostic #    221  SIvice   exists 
 Computing Diagnostic #    221  SIvice       Counter:       1   Parms: VV      M1      
           Vector  Mate for  SIvice       Diagnostic #    220  SIuice   exists 
 Computing Diagnostic #    222  SItaux       Counter:       1   Parms: UU      U1      
           Vector  Mate for  SItaux       Diagnostic #    223  SItauy   exists 
 Computing Diagnostic #    223  SItauy       Counter:       1   Parms: VV      U1      
           Vector  Mate for  SItauy       Diagnostic #    222  SItaux   exists 
 Computing Diagnostic #    284  CPLoWGHT     Counter:       1   Parms: SM      M1      
 Computing Diagnostic #    282  SIareaN      Counter:       1   Parms: SM      MX      
 Computing Diagnostic #    281  SIheffN      Counter:       1   Parms: SM      MX      
 Computing Diagnostic #    283  SIhsnowN     Counter:       1   Parms: SM      MX      
 Computing Diagnostic #    287  SIqSnow      Counter:       1   Parms: SM      MX      
 Computing Diagnostic #    288  SImeltPd     Counter:       1   Parms: SM      MX      
 Computing Diagnostic #    285  SItIces      Counter:       1   Parms: SM      MX      
 Computing Diagnostic #    289  SIiceAge     Counter:       1   Parms: SM      MX      
 Computing Diagnostic #    290  SI_dArea     Counter:       1   Parms: SM      MX      
 Computing Diagnostic #    291  SI_dHeff     Counter:       1   Parms: SM      MX      
 Computing Diagnostic #    292  SI_dHsnw     Counter:       1   Parms: SM      MX      
 Computing Diagnostic #    295  SI_dQSnw     Counter:       1   Parms: SM      MX      
 Computing Diagnostic #    286  SIqIce       Counter:       1   Parms: SM      MX      
 Computing Diagnostic #    294  SI_dQIce     Counter:       1   Parms: SM      MX      
 SEAICE_LSR: Residual Initial ipass,Uice,Vice=    1  5.94814633E-03  3.91405760E-03
 SEAICE_LSR (ipass=   1) iters,dU,Resid=     6  2.22346080E-05  1.19955412E-05
 SEAICE_LSR (ipass=   1) iters,dV,Resid=     6  2.21220531E-05  6.14814534E-06
 SEAICE_LSR: Residual Initial ipass,Uice,Vice=    2  3.22827133E-03  1.99260833E-03
 SEAICE_LSR (ipass=   2) iters,dU,Resid=     4  6.06931982E-05  1.44449344E-05
 SEAICE_LSR (ipass=   2) iters,dV,Resid=     4  8.07828385E-05  1.35019537E-05
 cg2d: Sum(rhs),rhsMax =  -2.60762369739073E+01  7.81953131184162E+01
(PID.TID 0000.0001)      cg2d_init_res =   2.25581350300741E-01
(PID.TID 0000.0001)      cg2d_iters(min,last) =      -1      10
(PID.TID 0000.0001)      cg2d_last_res =   8.80187234610607E-08
(PID.TID 0000.0001) // =======================================================
(PID.TID 0000.0001) // Begin MONITOR dynamic field statistics
(PID.TID 0000.0001) // =======================================================
(PID.TID 0000.0001) %MON time_tsnumber                =                    26
(PID.TID 0000.0001) %MON time_secondsf                =   2.3400000000000E+04
(PID.TID 0000.0001) %MON dynstat_eta_max              =   3.3676873088081E+00
(PID.TID 0000.0001) %MON dynstat_eta_min              =  -4.4018166028260E+00
(PID.TID 0000.0001) %MON dynstat_eta_mean             =   2.3693368848898E-02
(PID.TID 0000.0001) %MON dynstat_eta_sd               =   1.3233478768542E-01
(PID.TID 0000.0001) %MON dynstat_eta_del2             =   3.6099355874815E-03
(PID.TID 0000.0001) %MON dynstat_uvel_max             =   4.4358721643687E-01
(PID.TID 0000.0001) %MON dynstat_uvel_min             =  -6.5524916068929E-01
(PID.TID 0000.0001) %MON dynstat_uvel_mean            =   3.5941746179578E-04
(PID.TID 0000.0001) %MON dynstat_uvel_sd              =   5.8796069117336E-03
(PID.TID 0000.0001) %MON dynstat_uvel_del2            =   7.4390482768051E-05
(PID.TID 0000.0001) %MON dynstat_vvel_max             =   3.6556775852459E-01
(PID.TID 0000.0001) %MON dynstat_vvel_min             =  -9.3065473510560E-01
(PID.TID 0000.0001) %MON dynstat_vvel_mean            =  -3.1495158224815E-05
(PID.TID 0000.0001) %MON dynstat_vvel_sd              =   7.2528711232739E-03
(PID.TID 0000.0001) %MON dynstat_vvel_del2            =   1.0075952033510E-04
(PID.TID 0000.0001) %MON dynstat_wvel_max             =   1.5434686282438E-04
(PID.TID 0000.0001) %MON dynstat_wvel_min             =  -4.5346661253895E-04
(PID.TID 0000.0001) %MON dynstat_wvel_mean            =  -3.3374206607240E-07
(PID.TID 0000.0001) %MON dynstat_wvel_sd              =   8.7373053343590E-06
(PID.TID 0000.0001) %MON dynstat_wvel_del2            =   8.0421786417782E-08
(PID.TID 0000.0001) %MON dynstat_theta_max            =   2.0856063870960E+01
(PID.TID 0000.0001) %MON dynstat_theta_min            =   1.6080922658148E+01
(PID.TID 0000.0001) %MON dynstat_theta_mean           =   1.9997844577473E+01
(PID.TID 0000.0001) %MON dynstat_theta_sd             =   2.0043922057110E-02
(PID.TID 0000.0001) %MON dynstat_theta_del2           =   3.0937599889440E-04
(PID.TID 0000.0001) %MON dynstat_salt_max             =   3.5077884482911E+01
(PID.TID 0000.0001) %MON dynstat_salt_min             =   3.1588140075508E+01
(PID.TID 0000.0001) %MON dynstat_salt_mean            =   3.4999771362650E+01
(PID.TID 0000.0001) %MON dynstat_salt_sd              =   1.6632771688884E-02
(PID.TID 0000.0001) %MON dynstat_salt_del2            =   4.4539544310075E-04
(PID.TID 0000.0001) %MON dynstat_sst_max              =   2.0856063870960E+01
(PID.TID 0000.0001) %MON dynstat_sst_min              =   1.6080922658148E+01
(PID.TID 0000.0001) %MON dynstat_sst_mean             =   2.0020978523676E+01
(PID.TID 0000.0001) %MON dynstat_sst_sd               =   1.4292163909120E-01
(PID.TID 0000.0001) %MON dynstat_sst_del2             =   3.5295050665718E-03
(PID.TID 0000.0001) %MON dynstat_sss_max              =   3.5077884482911E+01
(PID.TID 0000.0001) %MON dynstat_sss_min              =   3.1588140075508E+01
(PID.TID 0000.0001) %MON dynstat_sss_mean             =   3.4989674675123E+01
(PID.TID 0000.0001) %MON dynstat_sss_sd               =   1.4182953273165E-01
(PID.TID 0000.0001) %MON dynstat_sss_del2             =   5.5926031758683E-03
(PID.TID 0000.0001) %MON forcing_qnet_max             =   7.2540620117188E+03
(PID.TID 0000.0001) %MON forcing_qnet_min             =  -6.3169644502117E+03
(PID.TID 0000.0001) %MON forcing_qnet_mean            =  -9.7314178442368E+01
(PID.TID 0000.0001) %MON forcing_qnet_sd              =   6.6596026562842E+02
(PID.TID 0000.0001) %MON forcing_qnet_del2            =   1.1871622548689E+01
(PID.TID 0000.0001) %MON forcing_qsw_max              =   0.0000000000000E+00
(PID.TID 0000.0001) %MON forcing_qsw_min              =  -1.1052372366200E+02
(PID.TID 0000.0001) %MON forcing_qsw_mean             =  -1.8061967519333E+01
(PID.TID 0000.0001) %MON forcing_qsw_sd               =   2.6115107892990E+01
(PID.TID 0000.0001) %MON forcing_qsw_del2             =   2.0902756092044E-01
(PID.TID 0000.0001) %MON forcing_empmr_max            =   8.5626496002078E-03
(PID.TID 0000.0001) %MON forcing_empmr_min            =  -1.2307049334049E-01
(PID.TID 0000.0001) %MON forcing_empmr_mean           =  -5.1443573736877E-04
(PID.TID 0000.0001) %MON forcing_empmr_sd             =   5.4431356303270E-03
(PID.TID 0000.0001) %MON forcing_empmr_del2           =   2.1510649782925E-04
(PID.TID 0000.0001) %MON forcing_fu_max               =   8.5967464916839E-01
(PID.TID 0000.0001) %MON forcing_fu_min               =  -6.2773669549810E-01
(PID.TID 0000.0001) %MON forcing_fu_mean              =  -1.6447451900904E-04
(PID.TID 0000.0001) %MON forcing_fu_sd                =   9.8766276823097E-02
(PID.TID 0000.0001) %MON forcing_fu_del2              =   8.1773531325121E-04
(PID.TID 0000.0001) %MON forcing_fv_max               =   4.9119534036361E-01
(PID.TID 0000.0001) %MON forcing_fv_min               =  -4.8696119446079E-01
(PID.TID 0000.0001) %MON forcing_fv_mean              =  -3.2839702056991E-03
(PID.TID 0000.0001) %MON forcing_fv_sd                =   8.2699621788899E-02
(PID.TID 0000.0001) %MON forcing_fv_del2              =   7.1592623279330E-04
(PID.TID 0000.0001) %MON trAdv_CFL_u_max              =   1.9237723586423E-03
(PID.TID 0000.0001) %MON trAdv_CFL_v_max              =   3.7077804393941E-03
(PID.TID 0000.0001) %MON trAdv_CFL_w_max              =   2.6946621657445E-03
(PID.TID 0000.0001) %MON advcfl_uvel_max              =   1.9285536053908E-03
(PID.TID 0000.0001) %MON advcfl_vvel_max              =   3.1800521185838E-03
(PID.TID 0000.0001) %MON advcfl_wvel_max              =   4.2807128118432E-03
(PID.TID 0000.0001) %MON advcfl_W_hf_max              =   2.6946621657445E-03
(PID.TID 0000.0001) %MON pe_b_mean                    =   2.4077585148762E-05
(PID.TID 0000.0001) %MON ke_max                       =   3.8402405717157E-01
(PID.TID 0000.0001) %MON ke_mean                      =   4.0347919240350E-05
(PID.TID 0000.0001) %MON ke_vol                       =   1.3398109042860E+18
(PID.TID 0000.0001) %MON vort_r_min                   =  -5.1501629526112E-06
(PID.TID 0000.0001) %MON vort_r_max                   =   2.8032317591056E-06
(PID.TID 0000.0001) %MON vort_a_mean                  =  -2.0549865324846E-05
(PID.TID 0000.0001) %MON vort_a_sd                    =   7.5259235630571E-05
(PID.TID 0000.0001) %MON vort_p_mean                  =  -2.4783366806768E-05
(PID.TID 0000.0001) %MON vort_p_sd                    =   1.2810553417918E-04
(PID.TID 0000.0001) %MON surfExpan_theta_mean         =  -3.0646618829252E-07
(PID.TID 0000.0001) %MON surfExpan_salt_mean          =   7.6173897855355E-07
(PID.TID 0000.0001) // =======================================================
(PID.TID 0000.0001) // End MONITOR dynamic field statistics
(PID.TID 0000.0001) // =======================================================
(PID.TID 0000.0001) // =======================================================
(PID.TID 0000.0001) // Begin MONITOR SEAICE statistics
(PID.TID 0000.0001) // =======================================================
(PID.TID 0000.0001) %MON seaice_tsnumber              =                    26
(PID.TID 0000.0001) %MON seaice_time_sec              =   2.3400000000000E+04
(PID.TID 0000.0001) %MON seaice_uice_max              =   4.6665061684521E-01
(PID.TID 0000.0001) %MON seaice_uice_min              =  -6.0913091339214E-01
(PID.TID 0000.0001) %MON seaice_uice_mean             =  -2.0369143824565E-03
(PID.TID 0000.0001) %MON seaice_uice_sd               =   4.5124542913221E-02
(PID.TID 0000.0001) %MON seaice_uice_del2             =   8.7403068325060E-04
(PID.TID 0000.0001) %MON seaice_vice_max              =   3.5770553613717E-01
(PID.TID 0000.0001) %MON seaice_vice_min              =  -9.4459656598589E-01
(PID.TID 0000.0001) %MON seaice_vice_mean             =  -5.8358027901477E-03
(PID.TID 0000.0001) %MON seaice_vice_sd               =   5.1572615938659E-02
(PID.TID 0000.0001) %MON seaice_vice_del2             =   1.0508992087152E-03
(PID.TID 0000.0001) %MON seaice_area_max              =   9.9720829254955E-01
(PID.TID 0000.0001) %MON seaice_area_min              =   0.0000000000000E+00
(PID.TID 0000.0001) %MON seaice_area_mean             =   6.6330449425437E-02
(PID.TID 0000.0001) %MON seaice_area_sd               =   2.2952391973204E-01
(PID.TID 0000.0001) %MON seaice_area_del2             =   1.6836909629211E-03
(PID.TID 0000.0001) %MON seaice_heff_max              =   8.3698358842666E+00
(PID.TID 0000.0001) %MON seaice_heff_min              =   0.0000000000000E+00
(PID.TID 0000.0001) %MON seaice_heff_mean             =   2.0128625893305E-01
(PID.TID 0000.0001) %MON seaice_heff_sd               =   9.6454443012240E-01
(PID.TID 0000.0001) %MON seaice_heff_del2             =   6.1886659483568E-03
(PID.TID 0000.0001) %MON seaice_hsnow_max             =   2.0138237994625E+00
(PID.TID 0000.0001) %MON seaice_hsnow_min             =   0.0000000000000E+00
(PID.TID 0000.0001) %MON seaice_hsnow_mean            =   2.2333009701838E-02
(PID.TID 0000.0001) %MON seaice_hsnow_sd              =   1.1811764707044E-01
(PID.TID 0000.0001) %MON seaice_hsnow_del2            =   1.4484920400048E-03
(PID.TID 0000.0001) // =======================================================
(PID.TID 0000.0001) // End MONITOR SEAICE statistics
(PID.TID 0000.0001) // =======================================================
 SEAICE_LSR: Residual Initial ipass,Uice,Vice=    1  4.57853244E-03  3.78867007E-03
 SEAICE_LSR (ipass=   1) iters,dU,Resid=     6  2.20177841E-05  1.45051314E-05
 SEAICE_LSR (ipass=   1) iters,dV,Resid=     6  5.56614010E-06  5.40296224E-06
 SEAICE_LSR: Residual Initial ipass,Uice,Vice=    2  2.35339927E-03  1.72979389E-03
 SEAICE_LSR (ipass=   2) iters,dU,Resid=     4  6.36874706E-05  2.02619685E-05
 SEAICE_LSR (ipass=   2) iters,dV,Resid=     4  3.76281337E-05  7.65555624E-06
 cg2d: Sum(rhs),rhsMax =  -2.76275326532977E+01  7.51892711042199E+01
(PID.TID 0000.0001)      cg2d_init_res =   2.41980402757643E-01
(PID.TID 0000.0001)      cg2d_iters(min,last) =      -1      10
(PID.TID 0000.0001)      cg2d_last_res =   9.71694009456215E-08
(PID.TID 0000.0001) // =======================================================
(PID.TID 0000.0001) // Begin MONITOR dynamic field statistics
(PID.TID 0000.0001) // =======================================================
(PID.TID 0000.0001) %MON time_tsnumber                =                    27
(PID.TID 0000.0001) %MON time_secondsf                =   2.4300000000000E+04
(PID.TID 0000.0001) %MON dynstat_eta_max              =   3.1250138227635E+00
(PID.TID 0000.0001) %MON dynstat_eta_min              =  -4.2317899308157E+00
(PID.TID 0000.0001) %MON dynstat_eta_mean             =   2.4137881386843E-02
(PID.TID 0000.0001) %MON dynstat_eta_sd               =   1.2911440392914E-01
(PID.TID 0000.0001) %MON dynstat_eta_del2             =   3.4668581845255E-03
(PID.TID 0000.0001) %MON dynstat_uvel_max             =   4.0582626409679E-01
(PID.TID 0000.0001) %MON dynstat_uvel_min             =  -7.0312983063804E-01
(PID.TID 0000.0001) %MON dynstat_uvel_mean            =   3.3221820111552E-04
(PID.TID 0000.0001) %MON dynstat_uvel_sd              =   5.8068669741048E-03
(PID.TID 0000.0001) %MON dynstat_uvel_del2            =   7.2683641751609E-05
(PID.TID 0000.0001) %MON dynstat_vvel_max             =   5.1382734970968E-01
(PID.TID 0000.0001) %MON dynstat_vvel_min             =  -9.1424819096591E-01
(PID.TID 0000.0001) %MON dynstat_vvel_mean            =  -4.4654716121538E-05
(PID.TID 0000.0001) %MON dynstat_vvel_sd              =   7.4058330113195E-03
(PID.TID 0000.0001) %MON dynstat_vvel_del2            =   1.0463367760768E-04
(PID.TID 0000.0001) %MON dynstat_wvel_max             =   1.6576589663341E-04
(PID.TID 0000.0001) %MON dynstat_wvel_min             =  -4.3928994926093E-04
(PID.TID 0000.0001) %MON dynstat_wvel_mean            =  -3.0561476476081E-07
(PID.TID 0000.0001) %MON dynstat_wvel_sd              =   8.7172390812892E-06
(PID.TID 0000.0001) %MON dynstat_wvel_del2            =   8.0285216739470E-08
(PID.TID 0000.0001) %MON dynstat_theta_max            =   2.0884194686348E+01
(PID.TID 0000.0001) %MON dynstat_theta_min            =   1.6082161012989E+01
(PID.TID 0000.0001) %MON dynstat_theta_mean           =   1.9997850034848E+01
(PID.TID 0000.0001) %MON dynstat_theta_sd             =   2.0170864751028E-02
(PID.TID 0000.0001) %MON dynstat_theta_del2           =   3.1068199099967E-04
(PID.TID 0000.0001) %MON dynstat_salt_max             =   3.5077927503170E+01
(PID.TID 0000.0001) %MON dynstat_salt_min             =   3.1494473649106E+01
(PID.TID 0000.0001) %MON dynstat_salt_mean            =   3.4999766395745E+01
(PID.TID 0000.0001) %MON dynstat_salt_sd              =   1.7089236869285E-02
(PID.TID 0000.0001) %MON dynstat_salt_del2            =   4.5759609501034E-04
(PID.TID 0000.0001) %MON dynstat_sst_max              =   2.0884194686348E+01
(PID.TID 0000.0001) %MON dynstat_sst_min              =   1.6082161012989E+01
(PID.TID 0000.0001) %MON dynstat_sst_mean             =   2.0022311206546E+01
(PID.TID 0000.0001) %MON dynstat_sst_sd               =   1.4405462721422E-01
(PID.TID 0000.0001) %MON dynstat_sst_del2             =   3.5470656218813E-03
(PID.TID 0000.0001) %MON dynstat_sss_max              =   3.5077927503170E+01
(PID.TID 0000.0001) %MON dynstat_sss_min              =   3.1494473649106E+01
(PID.TID 0000.0001) %MON dynstat_sss_mean             =   3.4989374498228E+01
(PID.TID 0000.0001) %MON dynstat_sss_sd               =   1.4574606237344E-01
(PID.TID 0000.0001) %MON dynstat_sss_del2             =   5.7458929875574E-03
(PID.TID 0000.0001) %MON forcing_qnet_max             =   8.0745776367188E+03
(PID.TID 0000.0001) %MON forcing_qnet_min             =  -6.2389295627446E+03
(PID.TID 0000.0001) %MON forcing_qnet_mean            =  -9.1022094744952E+01
(PID.TID 0000.0001) %MON forcing_qnet_sd              =   6.6167793619274E+02
(PID.TID 0000.0001) %MON forcing_qnet_del2            =   1.1785950931871E+01
(PID.TID 0000.0001) %MON forcing_qsw_max              =   0.0000000000000E+00
(PID.TID 0000.0001) %MON forcing_qsw_min              =  -1.0961443424594E+02
(PID.TID 0000.0001) %MON forcing_qsw_mean             =  -1.7808038509593E+01
(PID.TID 0000.0001) %MON forcing_qsw_sd               =   2.5851033048086E+01
(PID.TID 0000.0001) %MON forcing_qsw_del2             =   2.0842478513408E-01
(PID.TID 0000.0001) %MON forcing_empmr_max            =   8.4743816405535E-03
(PID.TID 0000.0001) %MON forcing_empmr_min            =  -1.2180263549089E-01
(PID.TID 0000.0001) %MON forcing_empmr_mean           =  -5.1118941863628E-04
(PID.TID 0000.0001) %MON forcing_empmr_sd             =   5.3902769019513E-03
(PID.TID 0000.0001) %MON forcing_empmr_del2           =   2.1297648170323E-04
(PID.TID 0000.0001) %MON forcing_fu_max               =   8.4139124611419E-01
(PID.TID 0000.0001) %MON forcing_fu_min               =  -6.1866644840992E-01
(PID.TID 0000.0001) %MON forcing_fu_mean              =  -1.4419410088667E-04
(PID.TID 0000.0001) %MON forcing_fu_sd                =   9.8060584557225E-02
(PID.TID 0000.0001) %MON forcing_fu_del2              =   8.0973745563815E-04
(PID.TID 0000.0001) %MON forcing_fv_max               =   4.9009850035224E-01
(PID.TID 0000.0001) %MON forcing_fv_min               =  -4.7485761799614E-01
(PID.TID 0000.0001) %MON forcing_fv_mean              =  -3.2741384473867E-03
(PID.TID 0000.0001) %MON forcing_fv_sd                =   8.2240805177445E-02
(PID.TID 0000.0001) %MON forcing_fv_del2              =   7.1011775115020E-04
(PID.TID 0000.0001) %MON trAdv_CFL_u_max              =   2.0648931353832E-03
(PID.TID 0000.0001) %MON trAdv_CFL_v_max              =   4.1309932763620E-03
(PID.TID 0000.0001) %MON trAdv_CFL_w_max              =   2.4084826592531E-03
(PID.TID 0000.0001) %MON advcfl_uvel_max              =   2.0694777670655E-03
(PID.TID 0000.0001) %MON advcfl_vvel_max              =   3.0568122328710E-03
(PID.TID 0000.0001) %MON advcfl_wvel_max              =   4.2366134083789E-03
(PID.TID 0000.0001) %MON advcfl_W_hf_max              =   2.4084826592531E-03
(PID.TID 0000.0001) %MON pe_b_mean                    =   2.2984258350377E-05
(PID.TID 0000.0001) %MON ke_max                       =   3.6446018403335E-01
(PID.TID 0000.0001) %MON ke_mean                      =   4.0989580486767E-05
(PID.TID 0000.0001) %MON ke_vol                       =   1.3398110670654E+18
(PID.TID 0000.0001) %MON vort_r_min                   =  -5.3073489720447E-06
(PID.TID 0000.0001) %MON vort_r_max                   =   2.7203708456627E-06
(PID.TID 0000.0001) %MON vort_a_mean                  =  -2.0549865324846E-05
(PID.TID 0000.0001) %MON vort_a_sd                    =   7.5259230873747E-05
(PID.TID 0000.0001) %MON vort_p_mean                  =  -2.4783363618579E-05
(PID.TID 0000.0001) %MON vort_p_sd                    =   1.2810548248032E-04
(PID.TID 0000.0001) %MON surfExpan_theta_mean         =  -4.2076481845520E-07
(PID.TID 0000.0001) %MON surfExpan_salt_mean          =   7.7098856685236E-07
(PID.TID 0000.0001) // =======================================================
(PID.TID 0000.0001) // End MONITOR dynamic field statistics
(PID.TID 0000.0001) // =======================================================
(PID.TID 0000.0001) // =======================================================
(PID.TID 0000.0001) // Begin MONITOR SEAICE statistics
(PID.TID 0000.0001) // =======================================================
(PID.TID 0000.0001) %MON seaice_tsnumber              =                    27
(PID.TID 0000.0001) %MON seaice_time_sec              =   2.4300000000000E+04
(PID.TID 0000.0001) %MON seaice_uice_max              =   4.2516216207391E-01
(PID.TID 0000.0001) %MON seaice_uice_min              =  -6.5729971215114E-01
(PID.TID 0000.0001) %MON seaice_uice_mean             =  -2.3449347065160E-03
(PID.TID 0000.0001) %MON seaice_uice_sd               =   4.4374552305155E-02
(PID.TID 0000.0001) %MON seaice_uice_del2             =   8.5025927984100E-04
(PID.TID 0000.0001) %MON seaice_vice_max              =   3.6301683387608E-01
(PID.TID 0000.0001) %MON seaice_vice_min              =  -9.2368345643163E-01
(PID.TID 0000.0001) %MON seaice_vice_mean             =  -5.9687323166997E-03
(PID.TID 0000.0001) %MON seaice_vice_sd               =   5.2729092102255E-02
(PID.TID 0000.0001) %MON seaice_vice_del2             =   1.0991095564323E-03
(PID.TID 0000.0001) %MON seaice_area_max              =   9.9702324453730E-01
(PID.TID 0000.0001) %MON seaice_area_min              =   0.0000000000000E+00
(PID.TID 0000.0001) %MON seaice_area_mean             =   6.6236767029374E-02
(PID.TID 0000.0001) %MON seaice_area_sd               =   2.2926922134632E-01
(PID.TID 0000.0001) %MON seaice_area_del2             =   1.6794275524279E-03
(PID.TID 0000.0001) %MON seaice_heff_max              =   8.3672289271531E+00
(PID.TID 0000.0001) %MON seaice_heff_min              =   0.0000000000000E+00
(PID.TID 0000.0001) %MON seaice_heff_mean             =   2.0111145272807E-01
(PID.TID 0000.0001) %MON seaice_heff_sd               =   9.6406293636573E-01
(PID.TID 0000.0001) %MON seaice_heff_del2             =   6.1870709784314E-03
(PID.TID 0000.0001) %MON seaice_hsnow_max             =   2.0131111136461E+00
(PID.TID 0000.0001) %MON seaice_hsnow_min             =   0.0000000000000E+00
(PID.TID 0000.0001) %MON seaice_hsnow_mean            =   2.2314367684029E-02
(PID.TID 0000.0001) %MON seaice_hsnow_sd              =   1.1805902330712E-01
(PID.TID 0000.0001) %MON seaice_hsnow_del2            =   1.4477980530956E-03
(PID.TID 0000.0001) // =======================================================
(PID.TID 0000.0001) // End MONITOR SEAICE statistics
(PID.TID 0000.0001) // =======================================================
 SEAICE_LSR: Residual Initial ipass,Uice,Vice=    1  4.32864800E-03  3.39410824E-03
 SEAICE_LSR (ipass=   1) iters,dU,Resid=     6  2.22301543E-05  1.83412159E-05
 SEAICE_LSR (ipass=   1) iters,dV,Resid=     6  1.73576600E-06  4.31762936E-06
 SEAICE_LSR: Residual Initial ipass,Uice,Vice=    2  2.36769251E-03  1.42947850E-03
 SEAICE_LSR (ipass=   2) iters,dU,Resid=     4  6.67377496E-05  2.60779159E-05
 SEAICE_LSR (ipass=   2) iters,dV,Resid=     4  1.62225704E-05  6.40620786E-06
 cg2d: Sum(rhs),rhsMax =  -2.98294582122974E+01  7.09131106144365E+01
(PID.TID 0000.0001)      cg2d_init_res =   2.62724335576124E-01
(PID.TID 0000.0001)      cg2d_iters(min,last) =      -1      11
(PID.TID 0000.0001)      cg2d_last_res =   2.85394823563590E-08
(PID.TID 0000.0001) // =======================================================
(PID.TID 0000.0001) // Begin MONITOR dynamic field statistics
(PID.TID 0000.0001) // =======================================================
(PID.TID 0000.0001) %MON time_tsnumber                =                    28
(PID.TID 0000.0001) %MON time_secondsf                =   2.5200000000000E+04
(PID.TID 0000.0001) %MON dynstat_eta_max              =   2.8587520095618E+00
(PID.TID 0000.0001) %MON dynstat_eta_min              =  -3.9903658433291E+00
(PID.TID 0000.0001) %MON dynstat_eta_mean             =   2.4579501736102E-02
(PID.TID 0000.0001) %MON dynstat_eta_sd               =   1.2540984014230E-01
(PID.TID 0000.0001) %MON dynstat_eta_del2             =   3.3047134796240E-03
(PID.TID 0000.0001) %MON dynstat_uvel_max             =   4.0193724314538E-01
(PID.TID 0000.0001) %MON dynstat_uvel_min             =  -7.4851216018991E-01
(PID.TID 0000.0001) %MON dynstat_uvel_mean            =   3.0222976009513E-04
(PID.TID 0000.0001) %MON dynstat_uvel_sd              =   5.7725558786342E-03
(PID.TID 0000.0001) %MON dynstat_uvel_del2            =   7.1652562774623E-05
(PID.TID 0000.0001) %MON dynstat_vvel_max             =   6.4974097352107E-01
(PID.TID 0000.0001) %MON dynstat_vvel_min             =  -9.2144373188956E-01
(PID.TID 0000.0001) %MON dynstat_vvel_mean            =  -5.5684945926549E-05
(PID.TID 0000.0001) %MON dynstat_vvel_sd              =   7.5363142202070E-03
(PID.TID 0000.0001) %MON dynstat_vvel_del2            =   1.0840301872929E-04
(PID.TID 0000.0001) %MON dynstat_wvel_max             =   1.7535670176514E-04
(PID.TID 0000.0001) %MON dynstat_wvel_min             =  -4.1946592422743E-04
(PID.TID 0000.0001) %MON dynstat_wvel_mean            =  -2.7252958615275E-07
(PID.TID 0000.0001) %MON dynstat_wvel_sd              =   8.6669158645726E-06
(PID.TID 0000.0001) %MON dynstat_wvel_del2            =   7.9934882045917E-08
(PID.TID 0000.0001) %MON dynstat_theta_max            =   2.0912006680344E+01
(PID.TID 0000.0001) %MON dynstat_theta_min            =   1.6084949147809E+01
(PID.TID 0000.0001) %MON dynstat_theta_mean           =   1.9997855155344E+01
(PID.TID 0000.0001) %MON dynstat_theta_sd             =   2.0299163798462E-02
(PID.TID 0000.0001) %MON dynstat_theta_del2           =   3.1200442515612E-04
(PID.TID 0000.0001) %MON dynstat_salt_max             =   3.5077930707571E+01
(PID.TID 0000.0001) %MON dynstat_salt_min             =   3.1402959067152E+01
(PID.TID 0000.0001) %MON dynstat_salt_mean            =   3.4999761507220E+01
(PID.TID 0000.0001) %MON dynstat_salt_sd              =   1.7535673489966E-02
(PID.TID 0000.0001) %MON dynstat_salt_del2            =   4.6951675616618E-04
(PID.TID 0000.0001) %MON dynstat_sst_max              =   2.0912006680344E+01
(PID.TID 0000.0001) %MON dynstat_sst_min              =   1.6084949147809E+01
(PID.TID 0000.0001) %MON dynstat_sst_mean             =   2.0023584506340E+01
(PID.TID 0000.0001) %MON dynstat_sst_sd               =   1.4516171173753E-01
(PID.TID 0000.0001) %MON dynstat_sst_del2             =   3.5646769301865E-03
(PID.TID 0000.0001) %MON dynstat_sss_max              =   3.5077930707571E+01
(PID.TID 0000.0001) %MON dynstat_sss_min              =   3.1402959067152E+01
(PID.TID 0000.0001) %MON dynstat_sss_mean             =   3.4989070415910E+01
(PID.TID 0000.0001) %MON dynstat_sss_sd               =   1.4957508526771E-01
(PID.TID 0000.0001) %MON dynstat_sss_del2             =   5.8956471860081E-03
(PID.TID 0000.0001) %MON forcing_qnet_max             =   9.1631435546875E+03
(PID.TID 0000.0001) %MON forcing_qnet_min             =  -6.1603344218636E+03
(PID.TID 0000.0001) %MON forcing_qnet_mean            =  -8.5405002093601E+01
(PID.TID 0000.0001) %MON forcing_qnet_sd              =   6.6091446743462E+02
(PID.TID 0000.0001) %MON forcing_qnet_del2            =   1.2089261033582E+01
(PID.TID 0000.0001) %MON forcing_qsw_max              =   0.0000000000000E+00
(PID.TID 0000.0001) %MON forcing_qsw_min              =  -1.0824980081526E+02
(PID.TID 0000.0001) %MON forcing_qsw_mean             =  -1.7507351969954E+01
(PID.TID 0000.0001) %MON forcing_qsw_sd               =   2.5578506576355E+01
(PID.TID 0000.0001) %MON forcing_qsw_del2             =   2.0719864644110E-01
(PID.TID 0000.0001) %MON forcing_empmr_max            =   8.3869993686676E-03
(PID.TID 0000.0001) %MON forcing_empmr_min            =  -1.2054736167192E-01
(PID.TID 0000.0001) %MON forcing_empmr_mean           =  -5.0786340164768E-04
(PID.TID 0000.0001) %MON forcing_empmr_sd             =   5.3393753762826E-03
(PID.TID 0000.0001) %MON forcing_empmr_del2           =   2.1090718277815E-04
(PID.TID 0000.0001) %MON forcing_fu_max               =   8.3116030728561E-01
(PID.TID 0000.0001) %MON forcing_fu_min               =  -6.1700608625424E-01
(PID.TID 0000.0001) %MON forcing_fu_mean              =  -1.6622255011599E-04
(PID.TID 0000.0001) %MON forcing_fu_sd                =   9.7319306380375E-02
(PID.TID 0000.0001) %MON forcing_fu_del2              =   8.0361112640418E-04
(PID.TID 0000.0001) %MON forcing_fv_max               =   4.8911677819308E-01
(PID.TID 0000.0001) %MON forcing_fv_min               =  -4.6669334453793E-01
(PID.TID 0000.0001) %MON forcing_fv_mean              =  -3.2843079366260E-03
(PID.TID 0000.0001) %MON forcing_fv_sd                =   8.1796169910469E-02
(PID.TID 0000.0001) %MON forcing_fv_del2              =   7.0462961273413E-04
(PID.TID 0000.0001) %MON trAdv_CFL_u_max              =   2.1991707803390E-03
(PID.TID 0000.0001) %MON trAdv_CFL_v_max              =   4.4962388525142E-03
(PID.TID 0000.0001) %MON trAdv_CFL_w_max              =   2.1510642663313E-03
(PID.TID 0000.0001) %MON advcfl_uvel_max              =   2.2030487207257E-03
(PID.TID 0000.0001) %MON advcfl_vvel_max              =   3.0070070124112E-03
(PID.TID 0000.0001) %MON advcfl_wvel_max              =   4.1929517103278E-03
(PID.TID 0000.0001) %MON advcfl_W_hf_max              =   2.1394530822761E-03
(PID.TID 0000.0001) %MON pe_b_mean                    =   2.1756806256439E-05
(PID.TID 0000.0001) %MON ke_max                       =   3.7336526662524E-01
(PID.TID 0000.0001) %MON ke_mean                      =   4.1703455821397E-05
(PID.TID 0000.0001) %MON ke_vol                       =   1.3398112288177E+18
(PID.TID 0000.0001) %MON vort_r_min                   =  -5.4265996526005E-06
(PID.TID 0000.0001) %MON vort_r_max                   =   2.6218604441173E-06
(PID.TID 0000.0001) %MON vort_a_mean                  =  -2.0549865324846E-05
(PID.TID 0000.0001) %MON vort_a_sd                    =   7.5259226590961E-05
(PID.TID 0000.0001) %MON vort_p_mean                  =  -2.4783360491098E-05
(PID.TID 0000.0001) %MON vort_p_sd                    =   1.2810543600319E-04
(PID.TID 0000.0001) %MON surfExpan_theta_mean         =  -5.2086748818179E-07
(PID.TID 0000.0001) %MON surfExpan_salt_mean          =   7.8010271349976E-07
(PID.TID 0000.0001) // =======================================================
(PID.TID 0000.0001) // End MONITOR dynamic field statistics
(PID.TID 0000.0001) // =======================================================
(PID.TID 0000.0001) // =======================================================
(PID.TID 0000.0001) // Begin MONITOR SEAICE statistics
(PID.TID 0000.0001) // =======================================================
(PID.TID 0000.0001) %MON seaice_tsnumber              =                    28
(PID.TID 0000.0001) %MON seaice_time_sec              =   2.5200000000000E+04
(PID.TID 0000.0001) %MON seaice_uice_max              =   3.9047203090315E-01
(PID.TID 0000.0001) %MON seaice_uice_min              =  -7.0395591679520E-01
(PID.TID 0000.0001) %MON seaice_uice_mean             =  -2.6396387943956E-03
(PID.TID 0000.0001) %MON seaice_uice_sd               =   4.3863787229572E-02
(PID.TID 0000.0001) %MON seaice_uice_del2             =   8.3268787933324E-04
(PID.TID 0000.0001) %MON seaice_vice_max              =   4.5501394730702E-01
(PID.TID 0000.0001) %MON seaice_vice_min              =  -9.0526898600266E-01
(PID.TID 0000.0001) %MON seaice_vice_mean             =  -6.0960625619098E-03
(PID.TID 0000.0001) %MON seaice_vice_sd               =   5.3820032616200E-02
(PID.TID 0000.0001) %MON seaice_vice_del2             =   1.1463463822906E-03
(PID.TID 0000.0001) %MON seaice_area_max              =   9.9683157481420E-01
(PID.TID 0000.0001) %MON seaice_area_min              =   0.0000000000000E+00
(PID.TID 0000.0001) %MON seaice_area_mean             =   6.6143143849501E-02
(PID.TID 0000.0001) %MON seaice_area_sd               =   2.2901441590039E-01
(PID.TID 0000.0001) %MON seaice_area_del2             =   1.6750950309672E-03
(PID.TID 0000.0001) %MON seaice_heff_max              =   8.3646219013569E+00
(PID.TID 0000.0001) %MON seaice_heff_min              =   0.0000000000000E+00
(PID.TID 0000.0001) %MON seaice_heff_mean             =   2.0093667200860E-01
(PID.TID 0000.0001) %MON seaice_heff_sd               =   9.6358096534553E-01
(PID.TID 0000.0001) %MON seaice_heff_del2             =   6.1854624452049E-03
(PID.TID 0000.0001) %MON seaice_hsnow_max             =   2.0123975337361E+00
(PID.TID 0000.0001) %MON seaice_hsnow_min             =   0.0000000000000E+00
(PID.TID 0000.0001) %MON seaice_hsnow_mean            =   2.2295798869655E-02
(PID.TID 0000.0001) %MON seaice_hsnow_sd              =   1.1800042848528E-01
(PID.TID 0000.0001) %MON seaice_hsnow_del2            =   1.4470993957438E-03
(PID.TID 0000.0001) // =======================================================
(PID.TID 0000.0001) // End MONITOR SEAICE statistics
(PID.TID 0000.0001) // =======================================================
 Compute Stats, Diag. #    211  SIarea    vol(   0 ): 1.456E+15  Parms: SM      M1      
 Compute Stats, Diag. #    214  SIheff    vol(   0 ): 1.456E+15  Parms: SM      M1      
 Compute Stats, Diag. #    216  SIhsnow   vol(   0 ): 1.456E+15  Parms: SM      M1      
 Compute Stats, Diag. #     83  sIceLoad  vol(   0 ): 1.456E+15  Parms: SM      U1      
 Compute Stats, Diag. #    220  SIuice    vol(   0 ): 1.383E+15  Parms: UU      M1      
 Compute Stats, Diag. #    221  SIvice    vol(   0 ): 1.391E+15  Parms: VV      M1      
 Compute Stats, Diag. #    222  SItaux    vol(   0 ): 1.383E+15  Parms: UU      U1      
 Compute Stats, Diag. #    223  SItauy    vol(   0 ): 1.391E+15  Parms: VV      U1      
 Compute Stats, Diag. #    282  SIareaN   vol(   0 ): 7.278E+15  Parms: SM      MX      
 Compute Stats, Diag. #    281  SIheffN   vol(   0 ): 7.278E+15  Parms: SM      MX      
 Compute Stats, Diag. #    283  SIhsnowN  vol(   0 ): 7.278E+15  Parms: SM      MX      
 Compute Stats, Diag. #    287  SIqSnow   vol(   0 ): 7.278E+15  Parms: SM      MX      
 Compute Stats, Diag. #    286  SIqIce    vol(   0 ): 2.911E+16  Parms: SM      MX      
 Compute Stats, Diag. #    288  SImeltPd  vol(   0 ): 7.278E+15  Parms: SM      MX      
 Compute Stats, Diag. #    285  SItIces   vol(   0 ): 7.278E+15  Parms: SM      MX      
 Compute Stats, Diag. #    289  SIiceAge  vol(   0 ): 7.278E+15  Parms: SM      MX      
 Compute Stats, Diag. #    290  SI_dArea  vol(   0 ): 7.278E+15  Parms: SM      MX      
 Compute Stats, Diag. #    291  SI_dHeff  vol(   0 ): 7.278E+15  Parms: SM      MX      
 Compute Stats, Diag. #    292  SI_dHsnw  vol(   0 ): 7.278E+15  Parms: SM      MX      
 Compute Stats, Diag. #    295  SI_dQSnw  vol(   0 ): 7.278E+15  Parms: SM      MX      
 Compute Stats, Diag. #    294  SI_dQIce  vol(   0 ): 2.911E+16  Parms: SM      MX      
 SEAICE_LSR: Residual Initial ipass,Uice,Vice=    1  4.31093459E-03  3.21256408E-03
 SEAICE_LSR (ipass=   1) iters,dU,Resid=     6  2.34506435E-05  2.27718870E-05
 SEAICE_LSR (ipass=   1) iters,dV,Resid=     6  2.61496047E-06  4.91282830E-06
 SEAICE_LSR: Residual Initial ipass,Uice,Vice=    2  2.53707850E-03  1.35981040E-03
 SEAICE_LSR (ipass=   2) iters,dU,Resid=     4  7.09055211E-05  3.15474144E-05
 SEAICE_LSR (ipass=   2) iters,dV,Resid=     4  1.57652199E-05  8.12448689E-06
 cg2d: Sum(rhs),rhsMax =  -3.28860812550489E+01  6.54743040206243E+01
(PID.TID 0000.0001)      cg2d_init_res =   2.88040127699805E-01
(PID.TID 0000.0001)      cg2d_iters(min,last) =      -1      11
(PID.TID 0000.0001)      cg2d_last_res =   3.19158734530894E-08
(PID.TID 0000.0001) // =======================================================
(PID.TID 0000.0001) // Begin MONITOR dynamic field statistics
(PID.TID 0000.0001) // =======================================================
(PID.TID 0000.0001) %MON time_tsnumber                =                    29
(PID.TID 0000.0001) %MON time_secondsf                =   2.6100000000000E+04
(PID.TID 0000.0001) %MON dynstat_eta_max              =   2.5735303574844E+00
(PID.TID 0000.0001) %MON dynstat_eta_min              =  -3.6836426827275E+00
(PID.TID 0000.0001) %MON dynstat_eta_mean             =   2.5019820488174E-02
(PID.TID 0000.0001) %MON dynstat_eta_sd               =   1.2146207159403E-01
(PID.TID 0000.0001) %MON dynstat_eta_del2             =   3.1287553872968E-03
(PID.TID 0000.0001) %MON dynstat_uvel_max             =   3.9407191629198E-01
(PID.TID 0000.0001) %MON dynstat_uvel_min             =  -7.9061089045370E-01
(PID.TID 0000.0001) %MON dynstat_uvel_mean            =   2.6984827168734E-04
(PID.TID 0000.0001) %MON dynstat_uvel_sd              =   5.7729727758957E-03
(PID.TID 0000.0001) %MON dynstat_uvel_del2            =   7.1180706426551E-05
(PID.TID 0000.0001) %MON dynstat_vvel_max             =   7.7181453728124E-01
(PID.TID 0000.0001) %MON dynstat_vvel_min             =  -1.0176595495797E+00
(PID.TID 0000.0001) %MON dynstat_vvel_mean            =  -6.3521221547030E-05
(PID.TID 0000.0001) %MON dynstat_vvel_sd              =   7.6351474935852E-03
(PID.TID 0000.0001) %MON dynstat_vvel_del2            =   1.1185412561425E-04
(PID.TID 0000.0001) %MON dynstat_wvel_max             =   1.8332622230369E-04
(PID.TID 0000.0001) %MON dynstat_wvel_min             =  -3.9619263107814E-04
(PID.TID 0000.0001) %MON dynstat_wvel_mean            =  -2.3665228787668E-07
(PID.TID 0000.0001) %MON dynstat_wvel_sd              =   8.5850434739106E-06
(PID.TID 0000.0001) %MON dynstat_wvel_del2            =   7.9383855991846E-08
(PID.TID 0000.0001) %MON dynstat_theta_max            =   2.0939513261775E+01
(PID.TID 0000.0001) %MON dynstat_theta_min            =   1.6089071601747E+01
(PID.TID 0000.0001) %MON dynstat_theta_mean           =   1.9997859841109E+01
(PID.TID 0000.0001) %MON dynstat_theta_sd             =   2.0431104822845E-02
(PID.TID 0000.0001) %MON dynstat_theta_del2           =   3.1330795894675E-04
(PID.TID 0000.0001) %MON dynstat_salt_max             =   3.5077933108826E+01
(PID.TID 0000.0001) %MON dynstat_salt_min             =   3.1313541111966E+01
(PID.TID 0000.0001) %MON dynstat_salt_mean            =   3.4999756666705E+01
(PID.TID 0000.0001) %MON dynstat_salt_sd              =   1.7972660797851E-02
(PID.TID 0000.0001) %MON dynstat_salt_del2            =   4.8116922879311E-04
(PID.TID 0000.0001) %MON dynstat_sst_max              =   2.0939513261775E+01
(PID.TID 0000.0001) %MON dynstat_sst_min              =   1.6089071601747E+01
(PID.TID 0000.0001) %MON dynstat_sst_mean             =   2.0024838477032E+01
(PID.TID 0000.0001) %MON dynstat_sst_sd               =   1.4627357649015E-01
(PID.TID 0000.0001) %MON dynstat_sst_del2             =   3.5823676283564E-03
(PID.TID 0000.0001) %MON dynstat_sss_max              =   3.5077933108826E+01
(PID.TID 0000.0001) %MON dynstat_sss_min              =   3.1313541111966E+01
(PID.TID 0000.0001) %MON dynstat_sss_mean             =   3.4988776734657E+01
(PID.TID 0000.0001) %MON dynstat_sss_sd               =   1.5332352417896E-01
(PID.TID 0000.0001) %MON dynstat_sss_del2             =   6.0420446419839E-03
(PID.TID 0000.0001) %MON forcing_qnet_max             =   1.0894339843750E+04
(PID.TID 0000.0001) %MON forcing_qnet_min             =  -6.0854868310667E+03
(PID.TID 0000.0001) %MON forcing_qnet_mean            =  -7.8142033291784E+01
(PID.TID 0000.0001) %MON forcing_qnet_sd              =   6.5952598497399E+02
(PID.TID 0000.0001) %MON forcing_qnet_del2            =   1.2121554599306E+01
(PID.TID 0000.0001) %MON forcing_qsw_max              =   0.0000000000000E+00
(PID.TID 0000.0001) %MON forcing_qsw_min              =  -1.0289242910391E+02
(PID.TID 0000.0001) %MON forcing_qsw_mean             =  -1.6918511002566E+01
(PID.TID 0000.0001) %MON forcing_qsw_sd               =   2.5150760313945E+01
(PID.TID 0000.0001) %MON forcing_qsw_del2             =   2.0395876722440E-01
(PID.TID 0000.0001) %MON forcing_empmr_max            =   8.3005512133241E-03
(PID.TID 0000.0001) %MON forcing_empmr_min            =  -1.1930634826422E-01
(PID.TID 0000.0001) %MON forcing_empmr_mean           =  -5.0636656488318E-04
(PID.TID 0000.0001) %MON forcing_empmr_sd             =   5.2922975202349E-03
(PID.TID 0000.0001) %MON forcing_empmr_del2           =   2.0896523655462E-04
(PID.TID 0000.0001) %MON forcing_fu_max               =   8.1959095502510E-01
(PID.TID 0000.0001) %MON forcing_fu_min               =  -6.1234516955317E-01
(PID.TID 0000.0001) %MON forcing_fu_mean              =  -2.0446834754052E-04
(PID.TID 0000.0001) %MON forcing_fu_sd                =   9.6608430070844E-02
(PID.TID 0000.0001) %MON forcing_fu_del2              =   7.9856229183193E-04
(PID.TID 0000.0001) %MON forcing_fv_max               =   4.8870411304080E-01
(PID.TID 0000.0001) %MON forcing_fv_min               =  -4.5996965387519E-01
(PID.TID 0000.0001) %MON forcing_fv_mean              =  -3.3119799558372E-03
(PID.TID 0000.0001) %MON forcing_fv_sd                =   8.1425066872651E-02
(PID.TID 0000.0001) %MON forcing_fv_del2              =   6.9944885479973E-04
(PID.TID 0000.0001) %MON trAdv_CFL_u_max              =   2.3243775074346E-03
(PID.TID 0000.0001) %MON trAdv_CFL_v_max              =   4.7993904599795E-03
(PID.TID 0000.0001) %MON trAdv_CFL_w_max              =   2.0939343058795E-03
(PID.TID 0000.0001) %MON advcfl_uvel_max              =   2.3269552633105E-03
(PID.TID 0000.0001) %MON advcfl_vvel_max              =   3.3209943222013E-03
(PID.TID 0000.0001) %MON advcfl_wvel_max              =   4.1497860265815E-03
(PID.TID 0000.0001) %MON advcfl_W_hf_max              =   1.9908942859319E-03
(PID.TID 0000.0001) %MON pe_b_mean                    =   2.0487568183756E-05
(PID.TID 0000.0001) %MON ke_max                       =   3.7808025237643E-01
(PID.TID 0000.0001) %MON ke_mean                      =   4.2393315680306E-05
(PID.TID 0000.0001) %MON ke_vol                       =   1.3398113895175E+18
(PID.TID 0000.0001) %MON vort_r_min                   =  -5.5053661875778E-06
(PID.TID 0000.0001) %MON vort_r_max                   =   2.5475056074841E-06
(PID.TID 0000.0001) %MON vort_a_mean                  =  -2.0549865324846E-05
(PID.TID 0000.0001) %MON vort_a_sd                    =   7.5259223070168E-05
(PID.TID 0000.0001) %MON vort_p_mean                  =  -2.4783357439615E-05
(PID.TID 0000.0001) %MON vort_p_sd                    =   1.2810539767722E-04
(PID.TID 0000.0001) %MON surfExpan_theta_mean         =  -6.0559773453713E-07
(PID.TID 0000.0001) %MON surfExpan_salt_mean          =   7.8906422345434E-07
(PID.TID 0000.0001) // =======================================================
(PID.TID 0000.0001) // End MONITOR dynamic field statistics
(PID.TID 0000.0001) // =======================================================
(PID.TID 0000.0001) // =======================================================
(PID.TID 0000.0001) // Begin MONITOR SEAICE statistics
(PID.TID 0000.0001) // =======================================================
(PID.TID 0000.0001) %MON seaice_tsnumber              =                    29
(PID.TID 0000.0001) %MON seaice_time_sec              =   2.6100000000000E+04
(PID.TID 0000.0001) %MON seaice_uice_max              =   3.5204194479807E-01
(PID.TID 0000.0001) %MON seaice_uice_min              =  -7.4829441478161E-01
(PID.TID 0000.0001) %MON seaice_uice_mean             =  -2.9355101432736E-03
(PID.TID 0000.0001) %MON seaice_uice_sd               =   4.3577763172162E-02
(PID.TID 0000.0001) %MON seaice_uice_del2             =   8.2039088077630E-04
(PID.TID 0000.0001) %MON seaice_vice_max              =   5.8338168336502E-01
(PID.TID 0000.0001) %MON seaice_vice_min              =  -8.9672219573887E-01
(PID.TID 0000.0001) %MON seaice_vice_mean             =  -6.2302836793204E-03
(PID.TID 0000.0001) %MON seaice_vice_sd               =   5.4831887466820E-02
(PID.TID 0000.0001) %MON seaice_vice_del2             =   1.1946095069029E-03
(PID.TID 0000.0001) %MON seaice_area_max              =   9.9663344313941E-01
(PID.TID 0000.0001) %MON seaice_area_min              =   0.0000000000000E+00
(PID.TID 0000.0001) %MON seaice_area_mean             =   6.6049560064491E-02
(PID.TID 0000.0001) %MON seaice_area_sd               =   2.2875951626624E-01
(PID.TID 0000.0001) %MON seaice_area_del2             =   1.6707140153515E-03
(PID.TID 0000.0001) %MON seaice_heff_max              =   8.3620148091866E+00
(PID.TID 0000.0001) %MON seaice_heff_min              =   0.0000000000000E+00
(PID.TID 0000.0001) %MON seaice_heff_mean             =   2.0076191737443E-01
(PID.TID 0000.0001) %MON seaice_heff_sd               =   9.6309853037806E-01
(PID.TID 0000.0001) %MON seaice_heff_del2             =   6.1838433578351E-03
(PID.TID 0000.0001) %MON seaice_hsnow_max             =   2.0116770231962E+00
(PID.TID 0000.0001) %MON seaice_hsnow_min             =   0.0000000000000E+00
(PID.TID 0000.0001) %MON seaice_hsnow_mean            =   2.2277360574236E-02
(PID.TID 0000.0001) %MON seaice_hsnow_sd              =   1.1794185917311E-01
(PID.TID 0000.0001) %MON seaice_hsnow_del2            =   1.4464011077828E-03
(PID.TID 0000.0001) // =======================================================
(PID.TID 0000.0001) // End MONITOR SEAICE statistics
(PID.TID 0000.0001) // =======================================================
 Computing Diagnostic #    211  SIarea       Counter:       1   Parms: SM      M1      
 Computing Diagnostic #    214  SIheff       Counter:       1   Parms: SM      M1      
 Computing Diagnostic #    216  SIhsnow      Counter:       1   Parms: SM      M1      
 Computing Diagnostic #     83  sIceLoad     Counter:       1   Parms: SM      U1      
 Computing Diagnostic #    220  SIuice       Counter:       1   Parms: UU      M1      
           Vector  Mate for  SIuice       Diagnostic #    221  SIvice   exists 
 Computing Diagnostic #    221  SIvice       Counter:       1   Parms: VV      M1      
           Vector  Mate for  SIvice       Diagnostic #    220  SIuice   exists 
 Computing Diagnostic #    222  SItaux       Counter:       1   Parms: UU      U1      
           Vector  Mate for  SItaux       Diagnostic #    223  SItauy   exists 
 Computing Diagnostic #    223  SItauy       Counter:       1   Parms: VV      U1      
           Vector  Mate for  SItauy       Diagnostic #    222  SItaux   exists 
 Computing Diagnostic #    284  CPLoWGHT     Counter:       1   Parms: SM      M1      
 Computing Diagnostic #    282  SIareaN      Counter:       1   Parms: SM      MX      
 Computing Diagnostic #    281  SIheffN      Counter:       1   Parms: SM      MX      
 Computing Diagnostic #    283  SIhsnowN     Counter:       1   Parms: SM      MX      
 Computing Diagnostic #    287  SIqSnow      Counter:       1   Parms: SM      MX      
 Computing Diagnostic #    288  SImeltPd     Counter:       1   Parms: SM      MX      
 Computing Diagnostic #    285  SItIces      Counter:       1   Parms: SM      MX      
 Computing Diagnostic #    289  SIiceAge     Counter:       1   Parms: SM      MX      
 Computing Diagnostic #    290  SI_dArea     Counter:       1   Parms: SM      MX      
 Computing Diagnostic #    291  SI_dHeff     Counter:       1   Parms: SM      MX      
 Computing Diagnostic #    292  SI_dHsnw     Counter:       1   Parms: SM      MX      
 Computing Diagnostic #    295  SI_dQSnw     Counter:       1   Parms: SM      MX      
 Computing Diagnostic #    286  SIqIce       Counter:       1   Parms: SM      MX      
 Computing Diagnostic #    294  SI_dQIce     Counter:       1   Parms: SM      MX      
 SEAICE_LSR: Residual Initial ipass,Uice,Vice=    1  4.35264509E-03  3.00908112E-03
 SEAICE_LSR (ipass=   1) iters,dU,Resid=     6  2.21313017E-05  2.71181126E-05
 SEAICE_LSR (ipass=   1) iters,dV,Resid=     6  3.95302943E-06  5.92616428E-06
 SEAICE_LSR: Residual Initial ipass,Uice,Vice=    2  2.76309825E-03  1.32546694E-03
 SEAICE_LSR (ipass=   2) iters,dU,Resid=     4  6.89881533E-05  3.46262345E-05
 SEAICE_LSR (ipass=   2) iters,dV,Resid=     4  2.10553028E-05  1.06592562E-05
 cg2d: Sum(rhs),rhsMax =  -3.71334986979601E+01  5.90008890740603E+01
(PID.TID 0000.0001)      cg2d_init_res =   3.20167739401955E-01
(PID.TID 0000.0001)      cg2d_iters(min,last) =      -1      11
(PID.TID 0000.0001)      cg2d_last_res =   3.59440543430601E-08
(PID.TID 0000.0001) // =======================================================
(PID.TID 0000.0001) // Begin MONITOR dynamic field statistics
(PID.TID 0000.0001) // =======================================================
(PID.TID 0000.0001) %MON time_tsnumber                =                    30
(PID.TID 0000.0001) %MON time_secondsf                =   2.7000000000000E+04
(PID.TID 0000.0001) %MON dynstat_eta_max              =   2.2741140471303E+00
(PID.TID 0000.0001) %MON dynstat_eta_min              =  -3.3188535372821E+00
(PID.TID 0000.0001) %MON dynstat_eta_mean             =   2.5458077214680E-02
(PID.TID 0000.0001) %MON dynstat_eta_sd               =   1.1748016366888E-01
(PID.TID 0000.0001) %MON dynstat_eta_del2             =   2.9435341114336E-03
(PID.TID 0000.0001) %MON dynstat_uvel_max             =   3.8231039949770E-01
(PID.TID 0000.0001) %MON dynstat_uvel_min             =  -8.2865487763952E-01
(PID.TID 0000.0001) %MON dynstat_uvel_mean            =   2.3557466810705E-04
(PID.TID 0000.0001) %MON dynstat_uvel_sd              =   5.8032345099468E-03
(PID.TID 0000.0001) %MON dynstat_uvel_del2            =   7.1163001341933E-05
(PID.TID 0000.0001) %MON dynstat_vvel_max             =   8.7886902550416E-01
(PID.TID 0000.0001) %MON dynstat_vvel_min             =  -1.0961466601478E+00
(PID.TID 0000.0001) %MON dynstat_vvel_mean            =  -6.7327542808355E-05
(PID.TID 0000.0001) %MON dynstat_vvel_sd              =   7.6971141925956E-03
(PID.TID 0000.0001) %MON dynstat_vvel_del2            =   1.1484767480793E-04
(PID.TID 0000.0001) %MON dynstat_wvel_max             =   1.8986907209683E-04
(PID.TID 0000.0001) %MON dynstat_wvel_min             =  -3.7144799305523E-04
(PID.TID 0000.0001) %MON dynstat_wvel_mean            =  -1.9749152690671E-07
(PID.TID 0000.0001) %MON dynstat_wvel_sd              =   8.4764596898836E-06
(PID.TID 0000.0001) %MON dynstat_wvel_del2            =   7.8701107080397E-08
(PID.TID 0000.0001) %MON dynstat_theta_max            =   2.0966703285332E+01
(PID.TID 0000.0001) %MON dynstat_theta_min            =   1.6094352615529E+01
(PID.TID 0000.0001) %MON dynstat_theta_mean           =   1.9997864187177E+01
(PID.TID 0000.0001) %MON dynstat_theta_sd             =   2.0566236124988E-02
(PID.TID 0000.0001) %MON dynstat_theta_del2           =   3.1463260094464E-04
(PID.TID 0000.0001) %MON dynstat_salt_max             =   3.5077935298766E+01
(PID.TID 0000.0001) %MON dynstat_salt_min             =   3.1226167333674E+01
(PID.TID 0000.0001) %MON dynstat_salt_mean            =   3.4999751896197E+01
(PID.TID 0000.0001) %MON dynstat_salt_sd              =   1.8400328151372E-02
(PID.TID 0000.0001) %MON dynstat_salt_del2            =   4.9255796602274E-04
(PID.TID 0000.0001) %MON dynstat_sst_max              =   2.0966703285332E+01
(PID.TID 0000.0001) %MON dynstat_sst_min              =   1.6094352615529E+01
(PID.TID 0000.0001) %MON dynstat_sst_mean             =   2.0026056783832E+01
(PID.TID 0000.0001) %MON dynstat_sst_sd               =   1.4738696381760E-01
(PID.TID 0000.0001) %MON dynstat_sst_del2             =   3.6002020534530E-03
(PID.TID 0000.0001) %MON dynstat_sss_max              =   3.5077935298766E+01
(PID.TID 0000.0001) %MON dynstat_sss_min              =   3.1226167333674E+01
(PID.TID 0000.0001) %MON dynstat_sss_mean             =   3.4988485954027E+01
(PID.TID 0000.0001) %MON dynstat_sss_sd               =   1.5699141987371E-01
(PID.TID 0000.0001) %MON dynstat_sss_del2             =   6.1851141633064E-03
(PID.TID 0000.0001) %MON forcing_qnet_max             =   1.4487295898438E+04
(PID.TID 0000.0001) %MON forcing_qnet_min             =  -6.0087898134516E+03
(PID.TID 0000.0001) %MON forcing_qnet_mean            =  -7.2493489696425E+01
(PID.TID 0000.0001) %MON forcing_qnet_sd              =   6.7191394134834E+02
(PID.TID 0000.0001) %MON forcing_qnet_del2            =   1.3173383171855E+01
(PID.TID 0000.0001) %MON forcing_qsw_max              =   0.0000000000000E+00
(PID.TID 0000.0001) %MON forcing_qsw_min              =  -1.0071174284210E+02
(PID.TID 0000.0001) %MON forcing_qsw_mean             =  -1.6730451329664E+01
(PID.TID 0000.0001) %MON forcing_qsw_sd               =   2.5086080746905E+01
(PID.TID 0000.0001) %MON forcing_qsw_del2             =   2.0218789405678E-01
(PID.TID 0000.0001) %MON forcing_empmr_max            =   8.2150390371680E-03
(PID.TID 0000.0001) %MON forcing_empmr_min            =  -1.1807709187269E-01
(PID.TID 0000.0001) %MON forcing_empmr_mean           =  -5.0399523548192E-04
(PID.TID 0000.0001) %MON forcing_empmr_sd             =   5.2581722081497E-03
(PID.TID 0000.0001) %MON forcing_empmr_del2           =   2.0742036740463E-04
(PID.TID 0000.0001) %MON forcing_fu_max               =   8.0726379124539E-01
(PID.TID 0000.0001) %MON forcing_fu_min               =  -6.0329408814852E-01
(PID.TID 0000.0001) %MON forcing_fu_mean              =  -1.6069488835505E-04
(PID.TID 0000.0001) %MON forcing_fu_sd                =   9.6015109960153E-02
(PID.TID 0000.0001) %MON forcing_fu_del2              =   7.9330592510215E-04
(PID.TID 0000.0001) %MON forcing_fv_max               =   4.8781362034175E-01
(PID.TID 0000.0001) %MON forcing_fv_min               =  -4.5455098134670E-01
(PID.TID 0000.0001) %MON forcing_fv_mean              =  -3.3531033794193E-03
(PID.TID 0000.0001) %MON forcing_fv_sd                =   8.1110331950312E-02
(PID.TID 0000.0001) %MON forcing_fv_del2              =   6.9467294192871E-04
(PID.TID 0000.0001) %MON trAdv_CFL_u_max              =   2.4383047272263E-03
(PID.TID 0000.0001) %MON trAdv_CFL_v_max              =   5.0373299501892E-03
(PID.TID 0000.0001) %MON trAdv_CFL_w_max              =   2.0316704954976E-03
(PID.TID 0000.0001) %MON advcfl_uvel_max              =   2.4389277358482E-03
(PID.TID 0000.0001) %MON advcfl_vvel_max              =   3.5771263937478E-03
(PID.TID 0000.0001) %MON advcfl_wvel_max              =   4.1070292825284E-03
(PID.TID 0000.0001) %MON advcfl_W_hf_max              =   2.0436433185687E-03
(PID.TID 0000.0001) %MON pe_b_mean                    =   1.9249543239929E-05
(PID.TID 0000.0001) %MON ke_max                       =   3.8033897651662E-01
(PID.TID 0000.0001) %MON ke_mean                      =   4.2987355883455E-05
(PID.TID 0000.0001) %MON ke_vol                       =   1.3398115497436E+18
(PID.TID 0000.0001) %MON vort_r_min                   =  -5.5416442392203E-06
(PID.TID 0000.0001) %MON vort_r_max                   =   2.9008572170753E-06
(PID.TID 0000.0001) %MON vort_a_mean                  =  -2.0549865324846E-05
(PID.TID 0000.0001) %MON vort_a_sd                    =   7.5259220583773E-05
(PID.TID 0000.0001) %MON vort_p_mean                  =  -2.4783354465998E-05
(PID.TID 0000.0001) %MON vort_p_sd                    =   1.2810536985674E-04
(PID.TID 0000.0001) %MON surfExpan_theta_mean         =  -6.7406097644775E-07
(PID.TID 0000.0001) %MON surfExpan_salt_mean          =   7.9789494054546E-07
(PID.TID 0000.0001) // =======================================================
(PID.TID 0000.0001) // End MONITOR dynamic field statistics
(PID.TID 0000.0001) // =======================================================
(PID.TID 0000.0001) // =======================================================
(PID.TID 0000.0001) // Begin MONITOR SEAICE statistics
(PID.TID 0000.0001) // =======================================================
(PID.TID 0000.0001) %MON seaice_tsnumber              =                    30
(PID.TID 0000.0001) %MON seaice_time_sec              =   2.7000000000000E+04
(PID.TID 0000.0001) %MON seaice_uice_max              =   3.1109186007858E-01
(PID.TID 0000.0001) %MON seaice_uice_min              =  -7.8955666667692E-01
(PID.TID 0000.0001) %MON seaice_uice_mean             =  -3.2363068512731E-03
(PID.TID 0000.0001) %MON seaice_uice_sd               =   4.3519593777527E-02
(PID.TID 0000.0001) %MON seaice_uice_del2             =   8.1394845484879E-04
(PID.TID 0000.0001) %MON seaice_vice_max              =   7.0424635566323E-01
(PID.TID 0000.0001) %MON seaice_vice_min              =  -9.8021756566487E-01
(PID.TID 0000.0001) %MON seaice_vice_mean             =  -6.3655717372528E-03
(PID.TID 0000.0001) %MON seaice_vice_sd               =   5.5711485392529E-02
(PID.TID 0000.0001) %MON seaice_vice_del2             =   1.2418482149476E-03
(PID.TID 0000.0001) %MON seaice_area_max              =   9.9642894378025E-01
(PID.TID 0000.0001) %MON seaice_area_min              =   0.0000000000000E+00
(PID.TID 0000.0001) %MON seaice_area_mean             =   6.5956015328068E-02
(PID.TID 0000.0001) %MON seaice_area_sd               =   2.2850450526561E-01
(PID.TID 0000.0001) %MON seaice_area_del2             =   1.6662886101332E-03
(PID.TID 0000.0001) %MON seaice_heff_max              =   8.3594076167572E+00
(PID.TID 0000.0001) %MON seaice_heff_min              =   0.0000000000000E+00
(PID.TID 0000.0001) %MON seaice_heff_mean             =   2.0058721253600E-01
(PID.TID 0000.0001) %MON seaice_heff_sd               =   9.6261559903020E-01
(PID.TID 0000.0001) %MON seaice_heff_del2             =   6.1822089155175E-03
(PID.TID 0000.0001) %MON seaice_hsnow_max             =   2.0109490210885E+00
(PID.TID 0000.0001) %MON seaice_hsnow_min             =   0.0000000000000E+00
(PID.TID 0000.0001) %MON seaice_hsnow_mean            =   2.2258992352952E-02
(PID.TID 0000.0001) %MON seaice_hsnow_sd              =   1.1788314151462E-01
(PID.TID 0000.0001) %MON seaice_hsnow_del2            =   1.4456996572115E-03
(PID.TID 0000.0001) // =======================================================
(PID.TID 0000.0001) // End MONITOR SEAICE statistics
(PID.TID 0000.0001) // =======================================================
 SEAICE_LSR: Residual Initial ipass,Uice,Vice=    1  4.39883511E-03  2.76708562E-03
 SEAICE_LSR (ipass=   1) iters,dU,Resid=     6  2.47370196E-05  2.90655470E-05
 SEAICE_LSR (ipass=   1) iters,dV,Resid=     6  4.70290470E-06  6.88478797E-06
 SEAICE_LSR: Residual Initial ipass,Uice,Vice=    2  2.92697372E-03  1.27344939E-03
 SEAICE_LSR (ipass=   2) iters,dU,Resid=     4  7.42108281E-05  3.34676589E-05
 SEAICE_LSR (ipass=   2) iters,dV,Resid=     4  2.50084220E-05  1.24492733E-05
 cg2d: Sum(rhs),rhsMax =  -4.31723548684364E+01  5.16356038040116E+01
(PID.TID 0000.0001)      cg2d_init_res =   3.63643392664323E-01
(PID.TID 0000.0001)      cg2d_iters(min,last) =      -1      11
(PID.TID 0000.0001)      cg2d_last_res =   4.18359657789512E-08
(PID.TID 0000.0001) // =======================================================
(PID.TID 0000.0001) // Begin MONITOR dynamic field statistics
(PID.TID 0000.0001) // =======================================================
(PID.TID 0000.0001) %MON time_tsnumber                =                    31
(PID.TID 0000.0001) %MON time_secondsf                =   2.7900000000000E+04
(PID.TID 0000.0001) %MON dynstat_eta_max              =   1.9653139751806E+00
(PID.TID 0000.0001) %MON dynstat_eta_min              =  -2.9040385647572E+00
(PID.TID 0000.0001) %MON dynstat_eta_mean             =   2.5903364172376E-02
(PID.TID 0000.0001) %MON dynstat_eta_sd               =   1.1364716631939E-01
(PID.TID 0000.0001) %MON dynstat_eta_del2             =   2.7542877538523E-03
(PID.TID 0000.0001) %MON dynstat_uvel_max             =   3.6680196221635E-01
(PID.TID 0000.0001) %MON dynstat_uvel_min             =  -8.6190661005647E-01
(PID.TID 0000.0001) %MON dynstat_uvel_mean            =   1.9988396711664E-04
(PID.TID 0000.0001) %MON dynstat_uvel_sd              =   5.8573120097404E-03
(PID.TID 0000.0001) %MON dynstat_uvel_del2            =   7.1497862730202E-05
(PID.TID 0000.0001) %MON dynstat_vvel_max             =   9.7003928171257E-01
(PID.TID 0000.0001) %MON dynstat_vvel_min             =  -1.1559135178646E+00
(PID.TID 0000.0001) %MON dynstat_vvel_mean            =  -6.6514948444193E-05
(PID.TID 0000.0001) %MON dynstat_vvel_sd              =   7.7205671685363E-03
(PID.TID 0000.0001) %MON dynstat_vvel_del2            =   1.1729463826846E-04
(PID.TID 0000.0001) %MON dynstat_wvel_max             =   1.9517078703559E-04
(PID.TID 0000.0001) %MON dynstat_wvel_min             =  -3.4687542611360E-04
(PID.TID 0000.0001) %MON dynstat_wvel_mean            =  -1.5879569532249E-07
(PID.TID 0000.0001) %MON dynstat_wvel_sd              =   8.3510974387224E-06
(PID.TID 0000.0001) %MON dynstat_wvel_del2            =   7.8044029150277E-08
(PID.TID 0000.0001) %MON dynstat_theta_max            =   2.0993590560773E+01
(PID.TID 0000.0001) %MON dynstat_theta_min            =   1.6100550759040E+01
(PID.TID 0000.0001) %MON dynstat_theta_mean           =   1.9997868047055E+01
(PID.TID 0000.0001) %MON dynstat_theta_sd             =   2.0710282635708E-02
(PID.TID 0000.0001) %MON dynstat_theta_del2           =   3.1616996531574E-04
(PID.TID 0000.0001) %MON dynstat_salt_max             =   3.5077937978510E+01
(PID.TID 0000.0001) %MON dynstat_salt_min             =   3.1140785818804E+01
(PID.TID 0000.0001) %MON dynstat_salt_mean            =   3.4999747132964E+01
(PID.TID 0000.0001) %MON dynstat_salt_sd              =   1.8819570916055E-02
(PID.TID 0000.0001) %MON dynstat_salt_del2            =   5.0370386716206E-04
(PID.TID 0000.0001) %MON dynstat_sst_max              =   2.0993590560773E+01
(PID.TID 0000.0001) %MON dynstat_sst_min              =   1.6100550759040E+01
(PID.TID 0000.0001) %MON dynstat_sst_mean             =   2.0027244102521E+01
(PID.TID 0000.0001) %MON dynstat_sst_sd               =   1.4856950839821E-01
(PID.TID 0000.0001) %MON dynstat_sst_del2             =   3.6211946509384E-03
(PID.TID 0000.0001) %MON dynstat_sss_max              =   3.5077937978510E+01
(PID.TID 0000.0001) %MON dynstat_sss_min              =   3.1140785818804E+01
(PID.TID 0000.0001) %MON dynstat_sss_mean             =   3.4988199712120E+01
(PID.TID 0000.0001) %MON dynstat_sss_sd               =   1.6058722584941E-01
(PID.TID 0000.0001) %MON dynstat_sss_del2             =   6.3251468697555E-03
(PID.TID 0000.0001) %MON forcing_qnet_max             =   2.8972386718750E+04
(PID.TID 0000.0001) %MON forcing_qnet_min             =  -5.9359873510671E+03
(PID.TID 0000.0001) %MON forcing_qnet_mean            =  -6.4386862521252E+01
(PID.TID 0000.0001) %MON forcing_qnet_sd              =   7.7872986101825E+02
(PID.TID 0000.0001) %MON forcing_qnet_del2            =   1.9032349045262E+01
(PID.TID 0000.0001) %MON forcing_qsw_max              =   0.0000000000000E+00
(PID.TID 0000.0001) %MON forcing_qsw_min              =  -9.8113418158743E+01
(PID.TID 0000.0001) %MON forcing_qsw_mean             =  -1.6497762942111E+01
(PID.TID 0000.0001) %MON forcing_qsw_sd               =   2.5013806513982E+01
(PID.TID 0000.0001) %MON forcing_qsw_del2             =   1.9985651672154E-01
(PID.TID 0000.0001) %MON forcing_empmr_max            =   8.1302635371685E-03
(PID.TID 0000.0001) %MON forcing_empmr_min            =  -1.1686041206121E-01
(PID.TID 0000.0001) %MON forcing_empmr_mean           =  -5.1208000135068E-04
(PID.TID 0000.0001) %MON forcing_empmr_sd             =   5.3403022210746E-03
(PID.TID 0000.0001) %MON forcing_empmr_del2           =   2.0948074514497E-04
(PID.TID 0000.0001) %MON forcing_fu_max               =   7.5489759773302E-01
(PID.TID 0000.0001) %MON forcing_fu_min               =  -5.9499954630041E-01
(PID.TID 0000.0001) %MON forcing_fu_mean              =  -2.3471062471084E-04
(PID.TID 0000.0001) %MON forcing_fu_sd                =   9.4886361516617E-02
(PID.TID 0000.0001) %MON forcing_fu_del2              =   7.8076103204230E-04
(PID.TID 0000.0001) %MON forcing_fv_max               =   4.8533518670020E-01
(PID.TID 0000.0001) %MON forcing_fv_min               =  -4.4996184346723E-01
(PID.TID 0000.0001) %MON forcing_fv_mean              =  -3.4179847538316E-03
(PID.TID 0000.0001) %MON forcing_fv_sd                =   8.0788242307229E-02
(PID.TID 0000.0001) %MON forcing_fv_del2              =   6.8987537900488E-04
(PID.TID 0000.0001) %MON trAdv_CFL_u_max              =   2.5388133364811E-03
(PID.TID 0000.0001) %MON trAdv_CFL_v_max              =   5.2079645843411E-03
(PID.TID 0000.0001) %MON trAdv_CFL_w_max              =   1.9647653860870E-03
(PID.TID 0000.0001) %MON advcfl_uvel_max              =   2.5367954666069E-03
(PID.TID 0000.0001) %MON advcfl_vvel_max              =   3.7721674516489E-03
(PID.TID 0000.0001) %MON advcfl_wvel_max              =   4.0647099847379E-03
(PID.TID 0000.0001) %MON advcfl_W_hf_max              =   2.1669426712994E-03
(PID.TID 0000.0001) %MON pe_b_mean                    =   1.8099820313994E-05
(PID.TID 0000.0001) %MON ke_max                       =   4.3891911686529E-01
(PID.TID 0000.0001) %MON ke_mean                      =   4.3437627596092E-05
(PID.TID 0000.0001) %MON ke_vol                       =   1.3398117092194E+18
(PID.TID 0000.0001) %MON vort_r_min                   =  -5.5340183999173E-06
(PID.TID 0000.0001) %MON vort_r_max                   =   3.2017802079079E-06
(PID.TID 0000.0001) %MON vort_a_mean                  =  -2.0549865324846E-05
(PID.TID 0000.0001) %MON vort_a_sd                    =   7.5259219359936E-05
(PID.TID 0000.0001) %MON vort_p_mean                  =  -2.4783351589388E-05
(PID.TID 0000.0001) %MON vort_p_sd                    =   1.2810535407159E-04
(PID.TID 0000.0001) %MON surfExpan_theta_mean         =  -7.2234494463727E-07
(PID.TID 0000.0001) %MON surfExpan_salt_mean          =   8.0765716430816E-07
(PID.TID 0000.0001) // =======================================================
(PID.TID 0000.0001) // End MONITOR dynamic field statistics
(PID.TID 0000.0001) // =======================================================
(PID.TID 0000.0001) // =======================================================
(PID.TID 0000.0001) // Begin MONITOR SEAICE statistics
(PID.TID 0000.0001) // =======================================================
(PID.TID 0000.0001) %MON seaice_tsnumber              =                    31
(PID.TID 0000.0001) %MON seaice_time_sec              =   2.7900000000000E+04
(PID.TID 0000.0001) %MON seaice_uice_max              =   2.6792517362193E-01
(PID.TID 0000.0001) %MON seaice_uice_min              =  -8.2707330497963E-01
(PID.TID 0000.0001) %MON seaice_uice_mean             =  -3.5268319683950E-03
(PID.TID 0000.0001) %MON seaice_uice_sd               =   4.3627414266928E-02
(PID.TID 0000.0001) %MON seaice_uice_del2             =   8.1242390676049E-04
(PID.TID 0000.0001) %MON seaice_vice_max              =   8.1294424288130E-01
(PID.TID 0000.0001) %MON seaice_vice_min              =  -1.0580312357525E+00
(PID.TID 0000.0001) %MON seaice_vice_mean             =  -6.4925312357004E-03
(PID.TID 0000.0001) %MON seaice_vice_sd               =   5.6407603668354E-02
(PID.TID 0000.0001) %MON seaice_vice_del2             =   1.2845737263423E-03
(PID.TID 0000.0001) %MON seaice_area_max              =   9.9621754776446E-01
(PID.TID 0000.0001) %MON seaice_area_min              =   0.0000000000000E+00
(PID.TID 0000.0001) %MON seaice_area_mean             =   6.5862507493537E-02
(PID.TID 0000.0001) %MON seaice_area_sd               =   2.2824959248098E-01
(PID.TID 0000.0001) %MON seaice_area_del2             =   1.6618609239290E-03
(PID.TID 0000.0001) %MON seaice_heff_max              =   8.3568002668891E+00
(PID.TID 0000.0001) %MON seaice_heff_min              =   0.0000000000000E+00
(PID.TID 0000.0001) %MON seaice_heff_mean             =   2.0041252630480E-01
(PID.TID 0000.0001) %MON seaice_heff_sd               =   9.6213222344052E-01
(PID.TID 0000.0001) %MON seaice_heff_del2             =   6.1805688655909E-03
(PID.TID 0000.0001) %MON seaice_hsnow_max             =   2.0102207457228E+00
(PID.TID 0000.0001) %MON seaice_hsnow_min             =   0.0000000000000E+00
(PID.TID 0000.0001) %MON seaice_hsnow_mean            =   2.2240705240979E-02
(PID.TID 0000.0001) %MON seaice_hsnow_sd              =   1.1782432866813E-01
(PID.TID 0000.0001) %MON seaice_hsnow_del2            =   1.4449999535164E-03
(PID.TID 0000.0001) // =======================================================
(PID.TID 0000.0001) // End MONITOR SEAICE statistics
(PID.TID 0000.0001) // =======================================================
 SEAICE_LSR: Residual Initial ipass,Uice,Vice=    1  4.44200567E-03  2.52466525E-03
 SEAICE_LSR (ipass=   1) iters,dU,Resid=     6  2.98003027E-05  2.90799244E-05
 SEAICE_LSR (ipass=   1) iters,dV,Resid=     6  5.21653824E-06  7.29763955E-06
 SEAICE_LSR: Residual Initial ipass,Uice,Vice=    2  3.00757883E-03  1.20948110E-03
 SEAICE_LSR (ipass=   2) iters,dU,Resid=     4  8.32945641E-05  3.08774253E-05
 SEAICE_LSR (ipass=   2) iters,dV,Resid=     4  2.81868550E-05  1.34123131E-05
 cg2d: Sum(rhs),rhsMax =  -5.20747293070392E+01  4.35343669296265E+01
(PID.TID 0000.0001)      cg2d_init_res =   4.26785504024715E-01
(PID.TID 0000.0001)      cg2d_iters(min,last) =      -1      11
(PID.TID 0000.0001)      cg2d_last_res =   5.10101804336003E-08
(PID.TID 0000.0001) // =======================================================
(PID.TID 0000.0001) // Begin MONITOR dynamic field statistics
(PID.TID 0000.0001) // =======================================================
(PID.TID 0000.0001) %MON time_tsnumber                =                    32
(PID.TID 0000.0001) %MON time_secondsf                =   2.8800000000000E+04
(PID.TID 0000.0001) %MON dynstat_eta_max              =   1.9390920732155E+00
(PID.TID 0000.0001) %MON dynstat_eta_min              =  -2.4479629892395E+00
(PID.TID 0000.0001) %MON dynstat_eta_mean             =   2.6342708595987E-02
(PID.TID 0000.0001) %MON dynstat_eta_sd               =   1.1007632565142E-01
(PID.TID 0000.0001) %MON dynstat_eta_del2             =   2.5651997599573E-03
(PID.TID 0000.0001) %MON dynstat_uvel_max             =   3.4775852577645E-01
(PID.TID 0000.0001) %MON dynstat_uvel_min             =  -8.8967927229063E-01
(PID.TID 0000.0001) %MON dynstat_uvel_mean            =   1.6339833832346E-04
(PID.TID 0000.0001) %MON dynstat_uvel_sd              =   5.9282359628702E-03
(PID.TID 0000.0001) %MON dynstat_uvel_del2            =   7.2059544888692E-05
(PID.TID 0000.0001) %MON dynstat_vvel_max             =   1.0447723473540E+00
(PID.TID 0000.0001) %MON dynstat_vvel_min             =  -1.1963292117627E+00
(PID.TID 0000.0001) %MON dynstat_vvel_mean            =  -6.0728080368820E-05
(PID.TID 0000.0001) %MON dynstat_vvel_sd              =   7.7061747587254E-03
(PID.TID 0000.0001) %MON dynstat_vvel_del2            =   1.1913735305703E-04
(PID.TID 0000.0001) %MON dynstat_wvel_max             =   1.9936110455847E-04
(PID.TID 0000.0001) %MON dynstat_wvel_min             =  -3.2372236989286E-04
(PID.TID 0000.0001) %MON dynstat_wvel_mean            =  -1.2055410811104E-07
(PID.TID 0000.0001) %MON dynstat_wvel_sd              =   8.2175248344008E-06
(PID.TID 0000.0001) %MON dynstat_wvel_del2            =   7.7300794807948E-08
(PID.TID 0000.0001) %MON dynstat_theta_max            =   2.1020169590486E+01
(PID.TID 0000.0001) %MON dynstat_theta_min            =   1.6107469276821E+01
(PID.TID 0000.0001) %MON dynstat_theta_mean           =   1.9997871699540E+01
(PID.TID 0000.0001) %MON dynstat_theta_sd             =   2.0855334714709E-02
(PID.TID 0000.0001) %MON dynstat_theta_del2           =   3.1771958905374E-04
(PID.TID 0000.0001) %MON dynstat_salt_max             =   3.5077940409742E+01
(PID.TID 0000.0001) %MON dynstat_salt_min             =   3.1057347407643E+01
(PID.TID 0000.0001) %MON dynstat_salt_mean            =   3.4999742478627E+01
(PID.TID 0000.0001) %MON dynstat_salt_sd              =   1.9229453996609E-02
(PID.TID 0000.0001) %MON dynstat_salt_del2            =   5.1459088544627E-04
(PID.TID 0000.0001) %MON dynstat_sst_max              =   2.1020169590486E+01
(PID.TID 0000.0001) %MON dynstat_sst_min              =   1.6107469276821E+01
(PID.TID 0000.0001) %MON dynstat_sst_mean             =   2.0028403208707E+01
(PID.TID 0000.0001) %MON dynstat_sst_sd               =   1.4973877266105E-01
(PID.TID 0000.0001) %MON dynstat_sst_del2             =   3.6422680524663E-03
(PID.TID 0000.0001) %MON dynstat_sss_max              =   3.5077940409742E+01
(PID.TID 0000.0001) %MON dynstat_sss_min              =   3.1057347407643E+01
(PID.TID 0000.0001) %MON dynstat_sss_mean             =   3.4987918830979E+01
(PID.TID 0000.0001) %MON dynstat_sss_sd               =   1.6410238979223E-01
(PID.TID 0000.0001) %MON dynstat_sss_del2             =   6.4619192386984E-03
(PID.TID 0000.0001) %MON forcing_qnet_max             =   2.4383550781250E+04
(PID.TID 0000.0001) %MON forcing_qnet_min             =  -5.8626039207119E+03
(PID.TID 0000.0001) %MON forcing_qnet_mean            =  -6.0981235883882E+01
(PID.TID 0000.0001) %MON forcing_qnet_sd              =   7.3409793016329E+02
(PID.TID 0000.0001) %MON forcing_qnet_del2            =   1.6983052705156E+01
(PID.TID 0000.0001) %MON forcing_qsw_max              =   0.0000000000000E+00
(PID.TID 0000.0001) %MON forcing_qsw_min              =  -9.7127451474292E+01
(PID.TID 0000.0001) %MON forcing_qsw_mean             =  -1.6223028604208E+01
(PID.TID 0000.0001) %MON forcing_qsw_sd               =   2.4932084217556E+01
(PID.TID 0000.0001) %MON forcing_qsw_del2             =   1.9696694274617E-01
(PID.TID 0000.0001) %MON forcing_empmr_max            =   8.0465711653233E-03
(PID.TID 0000.0001) %MON forcing_empmr_min            =  -1.1565632373095E-01
(PID.TID 0000.0001) %MON forcing_empmr_mean           =  -5.0524608715247E-04
(PID.TID 0000.0001) %MON forcing_empmr_sd             =   5.2434069143714E-03
(PID.TID 0000.0001) %MON forcing_empmr_del2           =   2.0600117823140E-04
(PID.TID 0000.0001) %MON forcing_fu_max               =   7.4664161307342E-01
(PID.TID 0000.0001) %MON forcing_fu_min               =  -5.8938289358123E-01
(PID.TID 0000.0001) %MON forcing_fu_mean              =  -2.6742387696690E-04
(PID.TID 0000.0001) %MON forcing_fu_sd                =   9.4275929035458E-02
(PID.TID 0000.0001) %MON forcing_fu_del2              =   7.7743631898654E-04
(PID.TID 0000.0001) %MON forcing_fv_max               =   4.8474496004144E-01
(PID.TID 0000.0001) %MON forcing_fv_min               =  -4.4649962960993E-01
(PID.TID 0000.0001) %MON forcing_fv_mean              =  -3.4660549842528E-03
(PID.TID 0000.0001) %MON forcing_fv_sd                =   8.0602754155501E-02
(PID.TID 0000.0001) %MON forcing_fv_del2              =   6.8633753246315E-04
(PID.TID 0000.0001) %MON trAdv_CFL_u_max              =   2.6238780929867E-03
(PID.TID 0000.0001) %MON trAdv_CFL_v_max              =   5.3102453106058E-03
(PID.TID 0000.0001) %MON trAdv_CFL_w_max              =   1.8935665423292E-03
(PID.TID 0000.0001) %MON advcfl_uvel_max              =   2.6185369950152E-03
(PID.TID 0000.0001) %MON advcfl_vvel_max              =   3.9040586032810E-03
(PID.TID 0000.0001) %MON advcfl_wvel_max              =   4.0228286515112E-03
(PID.TID 0000.0001) %MON advcfl_W_hf_max              =   2.2902879858702E-03
(PID.TID 0000.0001) %MON pe_b_mean                    =   1.7066147347797E-05
(PID.TID 0000.0001) %MON ke_max                       =   5.0292399913521E-01
(PID.TID 0000.0001) %MON ke_mean                      =   4.3712185005697E-05
(PID.TID 0000.0001) %MON ke_vol                       =   1.3398118712534E+18
(PID.TID 0000.0001) %MON vort_r_min                   =  -5.4816824533723E-06
(PID.TID 0000.0001) %MON vort_r_max                   =   3.4484494459048E-06
(PID.TID 0000.0001) %MON vort_a_mean                  =  -2.0549865324846E-05
(PID.TID 0000.0001) %MON vort_a_sd                    =   7.5259219597137E-05
(PID.TID 0000.0001) %MON vort_p_mean                  =  -2.4783348775755E-05
(PID.TID 0000.0001) %MON vort_p_sd                    =   1.2810534990670E-04
(PID.TID 0000.0001) %MON surfExpan_theta_mean         =  -7.5973951507676E-07
(PID.TID 0000.0001) %MON surfExpan_salt_mean          =   8.1479188087344E-07
(PID.TID 0000.0001) // =======================================================
(PID.TID 0000.0001) // End MONITOR dynamic field statistics
(PID.TID 0000.0001) // =======================================================
(PID.TID 0000.0001) // =======================================================
(PID.TID 0000.0001) // Begin MONITOR SEAICE statistics
(PID.TID 0000.0001) // =======================================================
(PID.TID 0000.0001) %MON seaice_tsnumber              =                    32
(PID.TID 0000.0001) %MON seaice_time_sec              =   2.8800000000000E+04
(PID.TID 0000.0001) %MON seaice_uice_max              =   2.4952049571832E-01
(PID.TID 0000.0001) %MON seaice_uice_min              =  -8.6021590866184E-01
(PID.TID 0000.0001) %MON seaice_uice_mean             =  -3.8066406748056E-03
(PID.TID 0000.0001) %MON seaice_uice_sd               =   4.3844670372502E-02
(PID.TID 0000.0001) %MON seaice_uice_del2             =   8.1364125945426E-04
(PID.TID 0000.0001) %MON seaice_vice_max              =   9.0673875980481E-01
(PID.TID 0000.0001) %MON seaice_vice_min              =  -1.1173981623086E+00
(PID.TID 0000.0001) %MON seaice_vice_mean             =  -6.6121243884861E-03
(PID.TID 0000.0001) %MON seaice_vice_sd               =   5.6883573839221E-02
(PID.TID 0000.0001) %MON seaice_vice_del2             =   1.3201728106693E-03
(PID.TID 0000.0001) %MON seaice_area_max              =   9.9599780391260E-01
(PID.TID 0000.0001) %MON seaice_area_min              =   0.0000000000000E+00
(PID.TID 0000.0001) %MON seaice_area_mean             =   6.5768988383532E-02
(PID.TID 0000.0001) %MON seaice_area_sd               =   2.2799457412864E-01
(PID.TID 0000.0001) %MON seaice_area_del2             =   1.6574277159168E-03
(PID.TID 0000.0001) %MON seaice_heff_max              =   8.3541926550881E+00
(PID.TID 0000.0001) %MON seaice_heff_min              =   0.0000000000000E+00
(PID.TID 0000.0001) %MON seaice_heff_mean             =   2.0023777408241E-01
(PID.TID 0000.0001) %MON seaice_heff_sd               =   9.6164835598097E-01
(PID.TID 0000.0001) %MON seaice_heff_del2             =   6.1789312459905E-03
(PID.TID 0000.0001) %MON seaice_hsnow_max             =   2.0094915696434E+00
(PID.TID 0000.0001) %MON seaice_hsnow_min             =   0.0000000000000E+00
(PID.TID 0000.0001) %MON seaice_hsnow_mean            =   2.2222302495866E-02
(PID.TID 0000.0001) %MON seaice_hsnow_sd              =   1.1776536422279E-01
(PID.TID 0000.0001) %MON seaice_hsnow_del2            =   1.4443023320545E-03
(PID.TID 0000.0001) // =======================================================
(PID.TID 0000.0001) // End MONITOR SEAICE statistics
(PID.TID 0000.0001) // =======================================================
 Compute Stats, Diag. #    211  SIarea    vol(   0 ): 1.456E+15  Parms: SM      M1      
 Compute Stats, Diag. #    214  SIheff    vol(   0 ): 1.456E+15  Parms: SM      M1      
 Compute Stats, Diag. #    216  SIhsnow   vol(   0 ): 1.456E+15  Parms: SM      M1      
 Compute Stats, Diag. #     83  sIceLoad  vol(   0 ): 1.456E+15  Parms: SM      U1      
 Compute Stats, Diag. #    220  SIuice    vol(   0 ): 1.383E+15  Parms: UU      M1      
 Compute Stats, Diag. #    221  SIvice    vol(   0 ): 1.391E+15  Parms: VV      M1      
 Compute Stats, Diag. #    222  SItaux    vol(   0 ): 1.383E+15  Parms: UU      U1      
 Compute Stats, Diag. #    223  SItauy    vol(   0 ): 1.391E+15  Parms: VV      U1      
 Compute Stats, Diag. #    282  SIareaN   vol(   0 ): 7.278E+15  Parms: SM      MX      
 Compute Stats, Diag. #    281  SIheffN   vol(   0 ): 7.278E+15  Parms: SM      MX      
 Compute Stats, Diag. #    283  SIhsnowN  vol(   0 ): 7.278E+15  Parms: SM      MX      
 Compute Stats, Diag. #    287  SIqSnow   vol(   0 ): 7.278E+15  Parms: SM      MX      
 Compute Stats, Diag. #    286  SIqIce    vol(   0 ): 2.911E+16  Parms: SM      MX      
 Compute Stats, Diag. #    288  SImeltPd  vol(   0 ): 7.278E+15  Parms: SM      MX      
 Compute Stats, Diag. #    285  SItIces   vol(   0 ): 7.278E+15  Parms: SM      MX      
 Compute Stats, Diag. #    289  SIiceAge  vol(   0 ): 7.278E+15  Parms: SM      MX      
 Compute Stats, Diag. #    290  SI_dArea  vol(   0 ): 7.278E+15  Parms: SM      MX      
 Compute Stats, Diag. #    291  SI_dHeff  vol(   0 ): 7.278E+15  Parms: SM      MX      
 Compute Stats, Diag. #    292  SI_dHsnw  vol(   0 ): 7.278E+15  Parms: SM      MX      
 Compute Stats, Diag. #    295  SI_dQSnw  vol(   0 ): 7.278E+15  Parms: SM      MX      
 Compute Stats, Diag. #    294  SI_dQIce  vol(   0 ): 2.911E+16  Parms: SM      MX      
 SEAICE_LSR: Residual Initial ipass,Uice,Vice=    1  4.41922519E-03  2.32842332E-03
 SEAICE_LSR (ipass=   1) iters,dU,Resid=     6  3.45029182E-05  2.74547868E-05
 SEAICE_LSR (ipass=   1) iters,dV,Resid=     6  5.69258139E-06  7.07245401E-06
 SEAICE_LSR: Residual Initial ipass,Uice,Vice=    2  3.00552339E-03  1.16232680E-03
 SEAICE_LSR (ipass=   2) iters,dU,Resid=     4  9.08636446E-05  2.72964859E-05
 SEAICE_LSR (ipass=   2) iters,dV,Resid=     4  3.06728033E-05  1.34610444E-05
 cg2d: Sum(rhs),rhsMax =  -5.42365511358725E+01  4.24677268358908E+01
(PID.TID 0000.0001)      cg2d_init_res =   4.33030724574853E-01
(PID.TID 0000.0001)      cg2d_iters(min,last) =      -1      11
(PID.TID 0000.0001)      cg2d_last_res =   5.36607989223464E-08
(PID.TID 0000.0001) // =======================================================
(PID.TID 0000.0001) // Begin MONITOR dynamic field statistics
(PID.TID 0000.0001) // =======================================================
(PID.TID 0000.0001) %MON time_tsnumber                =                    33
(PID.TID 0000.0001) %MON time_secondsf                =   2.9700000000000E+04
(PID.TID 0000.0001) %MON dynstat_eta_max              =   1.9173455166410E+00
(PID.TID 0000.0001) %MON dynstat_eta_min              =  -1.9597034120614E+00
(PID.TID 0000.0001) %MON dynstat_eta_mean             =   2.6764075952963E-02
(PID.TID 0000.0001) %MON dynstat_eta_sd               =   1.0685272439491E-01
(PID.TID 0000.0001) %MON dynstat_eta_del2             =   2.3830165577788E-03
(PID.TID 0000.0001) %MON dynstat_uvel_max             =   3.5813510094361E-01
(PID.TID 0000.0001) %MON dynstat_uvel_min             =  -9.1135349605594E-01
(PID.TID 0000.0001) %MON dynstat_uvel_mean            =   1.2673559928963E-04
(PID.TID 0000.0001) %MON dynstat_uvel_sd              =   6.0078457168681E-03
(PID.TID 0000.0001) %MON dynstat_uvel_del2            =   7.2685397400112E-05
(PID.TID 0000.0001) %MON dynstat_vvel_max             =   1.1028127835598E+00
(PID.TID 0000.0001) %MON dynstat_vvel_min             =  -1.2171297500738E+00
(PID.TID 0000.0001) %MON dynstat_vvel_mean            =  -4.9826624297709E-05
(PID.TID 0000.0001) %MON dynstat_vvel_sd              =   7.6569578596769E-03
(PID.TID 0000.0001) %MON dynstat_vvel_del2            =   1.2033811971309E-04
(PID.TID 0000.0001) %MON dynstat_wvel_max             =   2.0253669413640E-04
(PID.TID 0000.0001) %MON dynstat_wvel_min             =  -3.0282980124734E-04
(PID.TID 0000.0001) %MON dynstat_wvel_mean            =  -8.4923077056581E-08
(PID.TID 0000.0001) %MON dynstat_wvel_sd              =   8.0872719842802E-06
(PID.TID 0000.0001) %MON dynstat_wvel_del2            =   7.6586456573229E-08
(PID.TID 0000.0001) %MON dynstat_theta_max            =   2.1046446334999E+01
(PID.TID 0000.0001) %MON dynstat_theta_min            =   1.6114916321724E+01
(PID.TID 0000.0001) %MON dynstat_theta_mean           =   1.9997875315130E+01
(PID.TID 0000.0001) %MON dynstat_theta_sd             =   2.0988986830185E-02
(PID.TID 0000.0001) %MON dynstat_theta_del2           =   3.1893796966573E-04
(PID.TID 0000.0001) %MON dynstat_salt_max             =   3.5077943253963E+01
(PID.TID 0000.0001) %MON dynstat_salt_min             =   3.0975803840617E+01
(PID.TID 0000.0001) %MON dynstat_salt_mean            =   3.4999737969418E+01
(PID.TID 0000.0001) %MON dynstat_salt_sd              =   1.9629035237105E-02
(PID.TID 0000.0001) %MON dynstat_salt_del2            =   5.2520504755087E-04
(PID.TID 0000.0001) %MON dynstat_sst_max              =   2.1046446334999E+01
(PID.TID 0000.0001) %MON dynstat_sst_min              =   1.6114916321724E+01
(PID.TID 0000.0001) %MON dynstat_sst_mean             =   2.0029532097300E+01
(PID.TID 0000.0001) %MON dynstat_sst_sd               =   1.5077195007415E-01
(PID.TID 0000.0001) %MON dynstat_sst_del2             =   3.6584650137016E-03
(PID.TID 0000.0001) %MON dynstat_sss_max              =   3.5077943253963E+01
(PID.TID 0000.0001) %MON dynstat_sss_min              =   3.0975803840617E+01
(PID.TID 0000.0001) %MON dynstat_sss_mean             =   3.4987641058605E+01
(PID.TID 0000.0001) %MON dynstat_sss_sd               =   1.6752839371931E-01
(PID.TID 0000.0001) %MON dynstat_sss_del2             =   6.5952436458827E-03
(PID.TID 0000.0001) %MON forcing_qnet_max             =   4.8384052532327E+03
(PID.TID 0000.0001) %MON forcing_qnet_min             =  -5.7912185383126E+03
(PID.TID 0000.0001) %MON forcing_qnet_mean            =  -6.0402873020993E+01
(PID.TID 0000.0001) %MON forcing_qnet_sd              =   6.1567043468372E+02
(PID.TID 0000.0001) %MON forcing_qnet_del2            =   1.0235643622796E+01
(PID.TID 0000.0001) %MON forcing_qsw_max              =   0.0000000000000E+00
(PID.TID 0000.0001) %MON forcing_qsw_min              =  -1.0127862829574E+02
(PID.TID 0000.0001) %MON forcing_qsw_mean             =  -1.5765772459301E+01
(PID.TID 0000.0001) %MON forcing_qsw_sd               =   2.5053402512795E+01
(PID.TID 0000.0001) %MON forcing_qsw_del2             =   1.8945550611292E-01
(PID.TID 0000.0001) %MON forcing_empmr_max            =   7.9636173322797E-03
(PID.TID 0000.0001) %MON forcing_empmr_min            =  -1.1446481943130E-01
(PID.TID 0000.0001) %MON forcing_empmr_mean           =  -4.8457246052228E-04
(PID.TID 0000.0001) %MON forcing_empmr_sd             =   5.0567710450489E-03
(PID.TID 0000.0001) %MON forcing_empmr_del2           =   1.9974160063673E-04
(PID.TID 0000.0001) %MON forcing_fu_max               =   7.4143418886174E-01
(PID.TID 0000.0001) %MON forcing_fu_min               =  -5.8478548628860E-01
(PID.TID 0000.0001) %MON forcing_fu_mean              =  -2.8666550150085E-04
(PID.TID 0000.0001) %MON forcing_fu_sd                =   9.3715659823985E-02
(PID.TID 0000.0001) %MON forcing_fu_del2              =   7.7502076475543E-04
(PID.TID 0000.0001) %MON forcing_fv_max               =   4.8551763195830E-01
(PID.TID 0000.0001) %MON forcing_fv_min               =  -4.4323521037792E-01
(PID.TID 0000.0001) %MON forcing_fv_mean              =  -3.5429250432209E-03
(PID.TID 0000.0001) %MON forcing_fv_sd                =   8.0482277574103E-02
(PID.TID 0000.0001) %MON forcing_fv_del2              =   6.8341798702338E-04
(PID.TID 0000.0001) %MON trAdv_CFL_u_max              =   2.7289325001131E-03
(PID.TID 0000.0001) %MON trAdv_CFL_v_max              =   5.3441556640639E-03
(PID.TID 0000.0001) %MON trAdv_CFL_w_max              =   1.8182950468488E-03
(PID.TID 0000.0001) %MON advcfl_uvel_max              =   2.7323744737963E-03
(PID.TID 0000.0001) %MON advcfl_vvel_max              =   3.9719383472076E-03
(PID.TID 0000.0001) %MON advcfl_wvel_max              =   3.9813850236976E-03
(PID.TID 0000.0001) %MON advcfl_W_hf_max              =   2.4052910267793E-03
(PID.TID 0000.0001) %MON pe_b_mean                    =   1.6164375501819E-05
(PID.TID 0000.0001) %MON ke_max                       =   5.5426688235311E-01
(PID.TID 0000.0001) %MON ke_mean                      =   4.3792445341099E-05
(PID.TID 0000.0001) %MON ke_vol                       =   1.3398120311250E+18
(PID.TID 0000.0001) %MON vort_r_min                   =  -5.3844566742434E-06
(PID.TID 0000.0001) %MON vort_r_max                   =   3.6400218114836E-06
(PID.TID 0000.0001) %MON vort_a_mean                  =  -2.0549865324846E-05
(PID.TID 0000.0001) %MON vort_a_sd                    =   7.5259221424310E-05
(PID.TID 0000.0001) %MON vort_p_mean                  =  -2.4783346076174E-05
(PID.TID 0000.0001) %MON vort_p_sd                    =   1.2810535795749E-04
(PID.TID 0000.0001) %MON surfExpan_theta_mean         =  -7.9008627704559E-07
(PID.TID 0000.0001) %MON surfExpan_salt_mean          =   8.1817590174449E-07
(PID.TID 0000.0001) // =======================================================
(PID.TID 0000.0001) // End MONITOR dynamic field statistics
(PID.TID 0000.0001) // =======================================================
(PID.TID 0000.0001) // =======================================================
(PID.TID 0000.0001) // Begin MONITOR SEAICE statistics
(PID.TID 0000.0001) // =======================================================
(PID.TID 0000.0001) %MON seaice_tsnumber              =                    33
(PID.TID 0000.0001) %MON seaice_time_sec              =   2.9700000000000E+04
(PID.TID 0000.0001) %MON seaice_uice_max              =   2.4995363076128E-01
(PID.TID 0000.0001) %MON seaice_uice_min              =  -8.8832128059656E-01
(PID.TID 0000.0001) %MON seaice_uice_mean             =  -4.0797131413883E-03
(PID.TID 0000.0001) %MON seaice_uice_sd               =   4.4149042461437E-02
(PID.TID 0000.0001) %MON seaice_uice_del2             =   8.1743891204467E-04
(PID.TID 0000.0001) %MON seaice_vice_max              =   9.8425762231609E-01
(PID.TID 0000.0001) %MON seaice_vice_min              =  -1.1572476966098E+00
(PID.TID 0000.0001) %MON seaice_vice_mean             =  -6.7350097990933E-03
(PID.TID 0000.0001) %MON seaice_vice_sd               =   5.7127329240967E-02
(PID.TID 0000.0001) %MON seaice_vice_del2             =   1.3471547005456E-03
(PID.TID 0000.0001) %MON seaice_area_max              =   9.9576695977712E-01
(PID.TID 0000.0001) %MON seaice_area_min              =   0.0000000000000E+00
(PID.TID 0000.0001) %MON seaice_area_mean             =   6.5675492373051E-02
(PID.TID 0000.0001) %MON seaice_area_sd               =   2.2773958942847E-01
(PID.TID 0000.0001) %MON seaice_area_del2             =   1.6529885633312E-03
(PID.TID 0000.0001) %MON seaice_heff_max              =   8.3515857551058E+00
(PID.TID 0000.0001) %MON seaice_heff_min              =   0.0000000000000E+00
(PID.TID 0000.0001) %MON seaice_heff_mean             =   2.0006305248043E-01
(PID.TID 0000.0001) %MON seaice_heff_sd               =   9.6116408251719E-01
(PID.TID 0000.0001) %MON seaice_heff_del2             =   6.1772997754133E-03
(PID.TID 0000.0001) %MON seaice_hsnow_max             =   2.0087624498911E+00
(PID.TID 0000.0001) %MON seaice_hsnow_min             =   0.0000000000000E+00
(PID.TID 0000.0001) %MON seaice_hsnow_mean            =   2.2203890267407E-02
(PID.TID 0000.0001) %MON seaice_hsnow_sd              =   1.1770616944318E-01
(PID.TID 0000.0001) %MON seaice_hsnow_del2            =   1.4435955800539E-03
(PID.TID 0000.0001) // =======================================================
(PID.TID 0000.0001) // End MONITOR SEAICE statistics
(PID.TID 0000.0001) // =======================================================
 Computing Diagnostic #    211  SIarea       Counter:       1   Parms: SM      M1      
 Computing Diagnostic #    214  SIheff       Counter:       1   Parms: SM      M1      
 Computing Diagnostic #    216  SIhsnow      Counter:       1   Parms: SM      M1      
 Computing Diagnostic #     83  sIceLoad     Counter:       1   Parms: SM      U1      
 Computing Diagnostic #    220  SIuice       Counter:       1   Parms: UU      M1      
           Vector  Mate for  SIuice       Diagnostic #    221  SIvice   exists 
 Computing Diagnostic #    221  SIvice       Counter:       1   Parms: VV      M1      
           Vector  Mate for  SIvice       Diagnostic #    220  SIuice   exists 
 Computing Diagnostic #    222  SItaux       Counter:       1   Parms: UU      U1      
           Vector  Mate for  SItaux       Diagnostic #    223  SItauy   exists 
 Computing Diagnostic #    223  SItauy       Counter:       1   Parms: VV      U1      
           Vector  Mate for  SItauy       Diagnostic #    222  SItaux   exists 
 Computing Diagnostic #    284  CPLoWGHT     Counter:       1   Parms: SM      M1      
 Computing Diagnostic #    282  SIareaN      Counter:       1   Parms: SM      MX      
 Computing Diagnostic #    281  SIheffN      Counter:       1   Parms: SM      MX      
 Computing Diagnostic #    283  SIhsnowN     Counter:       1   Parms: SM      MX      
 Computing Diagnostic #    287  SIqSnow      Counter:       1   Parms: SM      MX      
 Computing Diagnostic #    288  SImeltPd     Counter:       1   Parms: SM      MX      
 Computing Diagnostic #    285  SItIces      Counter:       1   Parms: SM      MX      
 Computing Diagnostic #    289  SIiceAge     Counter:       1   Parms: SM      MX      
 Computing Diagnostic #    290  SI_dArea     Counter:       1   Parms: SM      MX      
 Computing Diagnostic #    291  SI_dHeff     Counter:       1   Parms: SM      MX      
 Computing Diagnostic #    292  SI_dHsnw     Counter:       1   Parms: SM      MX      
 Computing Diagnostic #    295  SI_dQSnw     Counter:       1   Parms: SM      MX      
 Computing Diagnostic #    286  SIqIce       Counter:       1   Parms: SM      MX      
 Computing Diagnostic #    294  SI_dQIce     Counter:       1   Parms: SM      MX      
 SEAICE_LSR: Residual Initial ipass,Uice,Vice=    1  4.32811615E-03  2.17626695E-03
 SEAICE_LSR (ipass=   1) iters,dU,Resid=     6  2.18702344E-05  2.55893493E-05
 SEAICE_LSR (ipass=   1) iters,dV,Resid=     6  7.22570649E-06  6.44263488E-06
 SEAICE_LSR: Residual Initial ipass,Uice,Vice=    2  2.96902199E-03  1.14620060E-03
 SEAICE_LSR (ipass=   2) iters,dU,Resid=     4  7.11888938E-05  2.38520349E-05
 SEAICE_LSR (ipass=   2) iters,dV,Resid=     4  3.50573695E-05  1.31797181E-05
 cg2d: Sum(rhs),rhsMax =  -5.61728981255187E+01  4.16448613208299E+01
(PID.TID 0000.0001)      cg2d_init_res =   4.35255516528416E-01
(PID.TID 0000.0001)      cg2d_iters(min,last) =      -1      11
(PID.TID 0000.0001)      cg2d_last_res =   5.49195837495254E-08
(PID.TID 0000.0001) // =======================================================
(PID.TID 0000.0001) // Begin MONITOR dynamic field statistics
(PID.TID 0000.0001) // =======================================================
(PID.TID 0000.0001) %MON time_tsnumber                =                    34
(PID.TID 0000.0001) %MON time_secondsf                =   3.0600000000000E+04
(PID.TID 0000.0001) %MON dynstat_eta_max              =   1.8798552217768E+00
(PID.TID 0000.0001) %MON dynstat_eta_min              =  -1.4486379358597E+00
(PID.TID 0000.0001) %MON dynstat_eta_mean             =   2.7182501734943E-02
(PID.TID 0000.0001) %MON dynstat_eta_sd               =   1.0409873002963E-01
(PID.TID 0000.0001) %MON dynstat_eta_del2             =   2.2182294778935E-03
(PID.TID 0000.0001) %MON dynstat_uvel_max             =   3.7446334995815E-01
(PID.TID 0000.0001) %MON dynstat_uvel_min             =  -9.2638944476999E-01
(PID.TID 0000.0001) %MON dynstat_uvel_mean            =   9.0513534765796E-05
(PID.TID 0000.0001) %MON dynstat_uvel_sd              =   6.0884817296561E-03
(PID.TID 0000.0001) %MON dynstat_uvel_del2            =   7.3257856939044E-05
(PID.TID 0000.0001) %MON dynstat_vvel_max             =   1.1441866731105E+00
(PID.TID 0000.0001) %MON dynstat_vvel_min             =  -1.2184230294197E+00
(PID.TID 0000.0001) %MON dynstat_vvel_mean            =  -3.3830226516281E-05
(PID.TID 0000.0001) %MON dynstat_vvel_sd              =   7.5770586535038E-03
(PID.TID 0000.0001) %MON dynstat_vvel_del2            =   1.2087258867067E-04
(PID.TID 0000.0001) %MON dynstat_wvel_max             =   2.0699867015562E-04
(PID.TID 0000.0001) %MON dynstat_wvel_min             =  -2.8465949279418E-04
(PID.TID 0000.0001) %MON dynstat_wvel_mean            =  -5.3857350044270E-08
(PID.TID 0000.0001) %MON dynstat_wvel_sd              =   7.9680166329499E-06
(PID.TID 0000.0001) %MON dynstat_wvel_del2            =   7.6068674026367E-08
(PID.TID 0000.0001) %MON dynstat_theta_max            =   2.1072417307096E+01
(PID.TID 0000.0001) %MON dynstat_theta_min            =   1.6122712198944E+01
(PID.TID 0000.0001) %MON dynstat_theta_mean           =   1.9997878576914E+01
(PID.TID 0000.0001) %MON dynstat_theta_sd             =   2.1122644562342E-02
(PID.TID 0000.0001) %MON dynstat_theta_del2           =   3.2005334115559E-04
(PID.TID 0000.0001) %MON dynstat_salt_max             =   3.5078205277846E+01
(PID.TID 0000.0001) %MON dynstat_salt_min             =   3.0896108663485E+01
(PID.TID 0000.0001) %MON dynstat_salt_mean            =   3.4999733510011E+01
(PID.TID 0000.0001) %MON dynstat_salt_sd              =   2.0019770239023E-02
(PID.TID 0000.0001) %MON dynstat_salt_del2            =   5.3556912632851E-04
(PID.TID 0000.0001) %MON dynstat_sst_max              =   2.1072417307096E+01
(PID.TID 0000.0001) %MON dynstat_sst_min              =   1.6122712198944E+01
(PID.TID 0000.0001) %MON dynstat_sst_mean             =   2.0030606691096E+01
(PID.TID 0000.0001) %MON dynstat_sst_sd               =   1.5179566207403E-01
(PID.TID 0000.0001) %MON dynstat_sst_del2             =   3.6733539382822E-03
(PID.TID 0000.0001) %MON dynstat_sss_max              =   3.5078205277846E+01
(PID.TID 0000.0001) %MON dynstat_sss_min              =   3.0896108663485E+01
(PID.TID 0000.0001) %MON dynstat_sss_mean             =   3.4987359172172E+01
(PID.TID 0000.0001) %MON dynstat_sss_sd               =   1.7087728654888E-01
(PID.TID 0000.0001) %MON dynstat_sss_del2             =   6.7254358235549E-03
(PID.TID 0000.0001) %MON forcing_qnet_max             =   7.0673339006310E+03
(PID.TID 0000.0001) %MON forcing_qnet_min             =  -5.7196008527114E+03
(PID.TID 0000.0001) %MON forcing_qnet_mean            =  -5.4492128948061E+01
(PID.TID 0000.0001) %MON forcing_qnet_sd              =   6.1902394132069E+02
(PID.TID 0000.0001) %MON forcing_qnet_del2            =   1.0594537535722E+01
(PID.TID 0000.0001) %MON forcing_qsw_max              =   0.0000000000000E+00
(PID.TID 0000.0001) %MON forcing_qsw_min              =  -1.0326194768009E+02
(PID.TID 0000.0001) %MON forcing_qsw_mean             =  -1.5583294271444E+01
(PID.TID 0000.0001) %MON forcing_qsw_sd               =   2.5144612572322E+01
(PID.TID 0000.0001) %MON forcing_qsw_del2             =   1.8643034541072E-01
(PID.TID 0000.0001) %MON forcing_empmr_max            =   7.8814504668117E-03
(PID.TID 0000.0001) %MON forcing_empmr_min            =  -1.1328590661287E-01
(PID.TID 0000.0001) %MON forcing_empmr_mean           =  -4.8118964927703E-04
(PID.TID 0000.0001) %MON forcing_empmr_sd             =   5.0045740132299E-03
(PID.TID 0000.0001) %MON forcing_empmr_del2           =   1.9765341088735E-04
(PID.TID 0000.0001) %MON forcing_fu_max               =   7.3282709798491E-01
(PID.TID 0000.0001) %MON forcing_fu_min               =  -5.8083292815141E-01
(PID.TID 0000.0001) %MON forcing_fu_mean              =  -3.1087032565312E-04
(PID.TID 0000.0001) %MON forcing_fu_sd                =   9.3057864064221E-02
(PID.TID 0000.0001) %MON forcing_fu_del2              =   7.7118247847929E-04
(PID.TID 0000.0001) %MON forcing_fv_max               =   4.8574126813457E-01
(PID.TID 0000.0001) %MON forcing_fv_min               =  -4.3884391464032E-01
(PID.TID 0000.0001) %MON forcing_fv_mean              =  -3.6290453458474E-03
(PID.TID 0000.0001) %MON forcing_fv_sd                =   8.0350993905520E-02
(PID.TID 0000.0001) %MON forcing_fv_del2              =   6.8025293197765E-04
(PID.TID 0000.0001) %MON trAdv_CFL_u_max              =   3.0166265207818E-03
(PID.TID 0000.0001) %MON trAdv_CFL_v_max              =   5.3107111681059E-03
(PID.TID 0000.0001) %MON trAdv_CFL_w_max              =   1.7536576586403E-03
(PID.TID 0000.0001) %MON advcfl_uvel_max              =   3.0099918010907E-03
(PID.TID 0000.0001) %MON advcfl_vvel_max              =   3.9761587894631E-03
(PID.TID 0000.0001) %MON advcfl_wvel_max              =   3.9403793604478E-03
(PID.TID 0000.0001) %MON advcfl_W_hf_max              =   2.5000884021186E-03
(PID.TID 0000.0001) %MON pe_b_mean                    =   1.5420505082990E-05
(PID.TID 0000.0001) %MON ke_max                       =   5.8904650511815E-01
(PID.TID 0000.0001) %MON ke_mean                      =   4.3671551714436E-05
(PID.TID 0000.0001) %MON ke_vol                       =   1.3398121844550E+18
(PID.TID 0000.0001) %MON vort_r_min                   =  -5.2427964655870E-06
(PID.TID 0000.0001) %MON vort_r_max                   =   3.7765833953131E-06
(PID.TID 0000.0001) %MON vort_a_mean                  =  -2.0549865324846E-05
(PID.TID 0000.0001) %MON vort_a_sd                    =   7.5259224908652E-05
(PID.TID 0000.0001) %MON vort_p_mean                  =  -2.4783343530941E-05
(PID.TID 0000.0001) %MON vort_p_sd                    =   1.2810537782053E-04
(PID.TID 0000.0001) %MON surfExpan_theta_mean         =  -7.9910645410795E-07
(PID.TID 0000.0001) %MON surfExpan_salt_mean          =   8.2289165465553E-07
(PID.TID 0000.0001) // =======================================================
(PID.TID 0000.0001) // End MONITOR dynamic field statistics
(PID.TID 0000.0001) // =======================================================
(PID.TID 0000.0001) // =======================================================
(PID.TID 0000.0001) // Begin MONITOR SEAICE statistics
(PID.TID 0000.0001) // =======================================================
(PID.TID 0000.0001) %MON seaice_tsnumber              =                    34
(PID.TID 0000.0001) %MON seaice_time_sec              =   3.0600000000000E+04
(PID.TID 0000.0001) %MON seaice_uice_max              =   2.5060644535018E-01
(PID.TID 0000.0001) %MON seaice_uice_min              =  -9.1070377317267E-01
(PID.TID 0000.0001) %MON seaice_uice_mean             =  -4.3358589256003E-03
(PID.TID 0000.0001) %MON seaice_uice_sd               =   4.4492438752693E-02
(PID.TID 0000.0001) %MON seaice_uice_del2             =   8.2314025504836E-04
(PID.TID 0000.0001) %MON seaice_vice_max              =   1.0449075200807E+00
(PID.TID 0000.0001) %MON seaice_vice_min              =  -1.1775243867427E+00
(PID.TID 0000.0001) %MON seaice_vice_mean             =  -6.8516110438455E-03
(PID.TID 0000.0001) %MON seaice_vice_sd               =   5.7114047092091E-02
(PID.TID 0000.0001) %MON seaice_vice_del2             =   1.3644075084891E-03
(PID.TID 0000.0001) %MON seaice_area_max              =   9.9551936019605E-01
(PID.TID 0000.0001) %MON seaice_area_min              =   0.0000000000000E+00
(PID.TID 0000.0001) %MON seaice_area_mean             =   6.5582005527698E-02
(PID.TID 0000.0001) %MON seaice_area_sd               =   2.2748476207640E-01
(PID.TID 0000.0001) %MON seaice_area_del2             =   1.6485290672360E-03
(PID.TID 0000.0001) %MON seaice_heff_max              =   8.3489786355225E+00
(PID.TID 0000.0001) %MON seaice_heff_min              =   0.0000000000000E+00
(PID.TID 0000.0001) %MON seaice_heff_mean             =   1.9988841317004E-01
(PID.TID 0000.0001) %MON seaice_heff_sd               =   9.6067939311378E-01
(PID.TID 0000.0001) %MON seaice_heff_del2             =   6.1756715861786E-03
(PID.TID 0000.0001) %MON seaice_hsnow_max             =   2.0080435557680E+00
(PID.TID 0000.0001) %MON seaice_hsnow_min             =   0.0000000000000E+00
(PID.TID 0000.0001) %MON seaice_hsnow_mean            =   2.2185531363419E-02
(PID.TID 0000.0001) %MON seaice_hsnow_sd              =   1.1764708604729E-01
(PID.TID 0000.0001) %MON seaice_hsnow_del2            =   1.4428855291846E-03
(PID.TID 0000.0001) // =======================================================
(PID.TID 0000.0001) // End MONITOR SEAICE statistics
(PID.TID 0000.0001) // =======================================================
 SEAICE_LSR: Residual Initial ipass,Uice,Vice=    1  4.24021435E-03  2.08520009E-03
 SEAICE_LSR (ipass=   1) iters,dU,Resid=     6  2.21680135E-05  2.33937091E-05
 SEAICE_LSR (ipass=   1) iters,dV,Resid=     6  6.45985900E-06  5.02696938E-06
 SEAICE_LSR: Residual Initial ipass,Uice,Vice=    2  3.00046228E-03  1.15468059E-03
 SEAICE_LSR (ipass=   2) iters,dU,Resid=     4  7.14756853E-05  2.26323911E-05
 SEAICE_LSR (ipass=   2) iters,dV,Resid=     4  3.45484863E-05  1.11167386E-05
 cg2d: Sum(rhs),rhsMax =  -5.38168623810030E+01  4.41400948695525E+01
(PID.TID 0000.0001)      cg2d_init_res =   4.04575760216139E-01
(PID.TID 0000.0001)      cg2d_iters(min,last) =      -1      11
(PID.TID 0000.0001)      cg2d_last_res =   5.03624235825240E-08
(PID.TID 0000.0001) // =======================================================
(PID.TID 0000.0001) // Begin MONITOR dynamic field statistics
(PID.TID 0000.0001) // =======================================================
(PID.TID 0000.0001) %MON time_tsnumber                =                    35
(PID.TID 0000.0001) %MON time_secondsf                =   3.1500000000000E+04
(PID.TID 0000.0001) %MON dynstat_eta_max              =   1.9728958674747E+00
(PID.TID 0000.0001) %MON dynstat_eta_min              =  -1.0733670305324E+00
(PID.TID 0000.0001) %MON dynstat_eta_mean             =   2.7602779077558E-02
(PID.TID 0000.0001) %MON dynstat_eta_sd               =   1.0188422687284E-01
(PID.TID 0000.0001) %MON dynstat_eta_del2             =   2.0799939752794E-03
(PID.TID 0000.0001) %MON dynstat_uvel_max             =   3.8963275468064E-01
(PID.TID 0000.0001) %MON dynstat_uvel_min             =  -9.6503416524307E-01
(PID.TID 0000.0001) %MON dynstat_uvel_mean            =   5.5314253868942E-05
(PID.TID 0000.0001) %MON dynstat_uvel_sd              =   6.1635243962424E-03
(PID.TID 0000.0001) %MON dynstat_uvel_del2            =   7.3696647642356E-05
(PID.TID 0000.0001) %MON dynstat_vvel_max             =   1.1691856025160E+00
(PID.TID 0000.0001) %MON dynstat_vvel_min             =  -1.2006776495401E+00
(PID.TID 0000.0001) %MON dynstat_vvel_mean            =  -1.2890500442728E-05
(PID.TID 0000.0001) %MON dynstat_vvel_sd              =   7.4709649080386E-03
(PID.TID 0000.0001) %MON dynstat_vvel_del2            =   1.2072598165005E-04
(PID.TID 0000.0001) %MON dynstat_wvel_max             =   2.1282394384272E-04
(PID.TID 0000.0001) %MON dynstat_wvel_min             =  -2.6935222256261E-04
(PID.TID 0000.0001) %MON dynstat_wvel_mean            =  -2.8748866630065E-08
(PID.TID 0000.0001) %MON dynstat_wvel_sd              =   7.8660043925379E-06
(PID.TID 0000.0001) %MON dynstat_wvel_del2            =   7.5697838271181E-08
(PID.TID 0000.0001) %MON dynstat_theta_max            =   2.1098084214381E+01
(PID.TID 0000.0001) %MON dynstat_theta_min            =   1.6130683446195E+01
(PID.TID 0000.0001) %MON dynstat_theta_mean           =   1.9997879776837E+01
(PID.TID 0000.0001) %MON dynstat_theta_sd             =   2.1304909563365E-02
(PID.TID 0000.0001) %MON dynstat_theta_del2           =   3.2041353512076E-04
(PID.TID 0000.0001) %MON dynstat_salt_max             =   3.5078453649224E+01
(PID.TID 0000.0001) %MON dynstat_salt_min             =   3.0818216720208E+01
(PID.TID 0000.0001) %MON dynstat_salt_mean            =   3.4999728693626E+01
(PID.TID 0000.0001) %MON dynstat_salt_sd              =   2.0404970648725E-02
(PID.TID 0000.0001) %MON dynstat_salt_del2            =   5.4568206206694E-04
(PID.TID 0000.0001) %MON dynstat_sst_max              =   2.1098084214381E+01
(PID.TID 0000.0001) %MON dynstat_sst_min              =   1.6130683446195E+01
(PID.TID 0000.0001) %MON dynstat_sst_mean             =   2.0031542832715E+01
(PID.TID 0000.0001) %MON dynstat_sst_sd               =   1.5333372327282E-01
(PID.TID 0000.0001) %MON dynstat_sst_del2             =   3.6778573170432E-03
(PID.TID 0000.0001) %MON dynstat_sss_max              =   3.5078453649224E+01
(PID.TID 0000.0001) %MON dynstat_sss_min              =   3.0818216720208E+01
(PID.TID 0000.0001) %MON dynstat_sss_mean             =   3.4987057443220E+01
(PID.TID 0000.0001) %MON dynstat_sss_sd               =   1.7417672133118E-01
(PID.TID 0000.0001) %MON dynstat_sss_del2             =   6.8524749024637E-03
(PID.TID 0000.0001) %MON forcing_qnet_max             =   1.1852445739187E+05
(PID.TID 0000.0001) %MON forcing_qnet_min             =  -5.6488547132653E+03
(PID.TID 0000.0001) %MON forcing_qnet_mean            =  -1.9687768587697E+01
(PID.TID 0000.0001) %MON forcing_qnet_sd              =   2.0539604340061E+03
(PID.TID 0000.0001) %MON forcing_qnet_del2            =   6.5829519412467E+01
(PID.TID 0000.0001) %MON forcing_qsw_max              =   0.0000000000000E+00
(PID.TID 0000.0001) %MON forcing_qsw_min              =  -1.0481946367140E+02
(PID.TID 0000.0001) %MON forcing_qsw_mean             =  -1.5366586940838E+01
(PID.TID 0000.0001) %MON forcing_qsw_sd               =   2.5203384688925E+01
(PID.TID 0000.0001) %MON forcing_qsw_del2             =   1.8297187784714E-01
(PID.TID 0000.0001) %MON forcing_empmr_max            =   7.8002670779824E-03
(PID.TID 0000.0001) %MON forcing_empmr_min            =  -1.1211873590946E-01
(PID.TID 0000.0001) %MON forcing_empmr_mean           =  -4.8331894400760E-04
(PID.TID 0000.0001) %MON forcing_empmr_sd             =   4.9670683204036E-03
(PID.TID 0000.0001) %MON forcing_empmr_del2           =   1.9595700576045E-04
(PID.TID 0000.0001) %MON forcing_fu_max               =   7.2192674789057E-01
(PID.TID 0000.0001) %MON forcing_fu_min               =  -5.7636118255861E-01
(PID.TID 0000.0001) %MON forcing_fu_mean              =  -3.6297508938538E-04
(PID.TID 0000.0001) %MON forcing_fu_sd                =   9.2429216517356E-02
(PID.TID 0000.0001) %MON forcing_fu_del2              =   7.6793536048862E-04
(PID.TID 0000.0001) %MON forcing_fv_max               =   4.8683707856932E-01
(PID.TID 0000.0001) %MON forcing_fv_min               =  -4.3379306840265E-01
(PID.TID 0000.0001) %MON forcing_fv_mean              =  -3.7273624129653E-03
(PID.TID 0000.0001) %MON forcing_fv_sd                =   8.0278999225266E-02
(PID.TID 0000.0001) %MON forcing_fv_del2              =   6.7783130726298E-04
(PID.TID 0000.0001) %MON trAdv_CFL_u_max              =   3.2369033052270E-03
(PID.TID 0000.0001) %MON trAdv_CFL_v_max              =   5.2119385267653E-03
(PID.TID 0000.0001) %MON trAdv_CFL_w_max              =   1.8027519085687E-03
(PID.TID 0000.0001) %MON advcfl_uvel_max              =   3.2181637339298E-03
(PID.TID 0000.0001) %MON advcfl_vvel_max              =   3.9182491419292E-03
(PID.TID 0000.0001) %MON advcfl_wvel_max              =   3.8997821185900E-03
(PID.TID 0000.0001) %MON advcfl_W_hf_max              =   2.5753598693839E-03
(PID.TID 0000.0001) %MON pe_b_mean                    =   1.4843505189012E-05
(PID.TID 0000.0001) %MON ke_max                       =   6.0492069942524E-01
(PID.TID 0000.0001) %MON ke_mean                      =   4.3350366790567E-05
(PID.TID 0000.0001) %MON ke_vol                       =   1.3398123367146E+18
(PID.TID 0000.0001) %MON vort_r_min                   =  -5.0577786962668E-06
(PID.TID 0000.0001) %MON vort_r_max                   =   3.8590966284352E-06
(PID.TID 0000.0001) %MON vort_a_mean                  =  -2.0549865324846E-05
(PID.TID 0000.0001) %MON vort_a_sd                    =   7.5259230046765E-05
(PID.TID 0000.0001) %MON vort_p_mean                  =  -2.4783341076981E-05
(PID.TID 0000.0001) %MON vort_p_sd                    =   1.2810540543028E-04
(PID.TID 0000.0001) %MON surfExpan_theta_mean         =  -7.9441574996722E-07
(PID.TID 0000.0001) %MON surfExpan_salt_mean          =   8.2644589066435E-07
(PID.TID 0000.0001) // =======================================================
(PID.TID 0000.0001) // End MONITOR dynamic field statistics
(PID.TID 0000.0001) // =======================================================
(PID.TID 0000.0001) // =======================================================
(PID.TID 0000.0001) // Begin MONITOR SEAICE statistics
(PID.TID 0000.0001) // =======================================================
(PID.TID 0000.0001) %MON seaice_tsnumber              =                    35
(PID.TID 0000.0001) %MON seaice_time_sec              =   3.1500000000000E+04
(PID.TID 0000.0001) %MON seaice_uice_max              =   2.4900084831206E-01
(PID.TID 0000.0001) %MON seaice_uice_min              =  -9.2671656598008E-01
(PID.TID 0000.0001) %MON seaice_uice_mean             =  -4.5818926420512E-03
(PID.TID 0000.0001) %MON seaice_uice_sd               =   4.4845372226608E-02
(PID.TID 0000.0001) %MON seaice_uice_del2             =   8.2950481235307E-04
(PID.TID 0000.0001) %MON seaice_vice_max              =   1.0885323569029E+00
(PID.TID 0000.0001) %MON seaice_vice_min              =  -1.1791345067245E+00
(PID.TID 0000.0001) %MON seaice_vice_mean             =  -6.9764191504868E-03
(PID.TID 0000.0001) %MON seaice_vice_sd               =   5.6873216111321E-02
(PID.TID 0000.0001) %MON seaice_vice_del2             =   1.3717423954873E-03
(PID.TID 0000.0001) %MON seaice_area_max              =   9.9522627857373E-01
(PID.TID 0000.0001) %MON seaice_area_min              =   0.0000000000000E+00
(PID.TID 0000.0001) %MON seaice_area_mean             =   6.5488530315026E-02
(PID.TID 0000.0001) %MON seaice_area_sd               =   2.2723006758597E-01
(PID.TID 0000.0001) %MON seaice_area_del2             =   1.6440551231222E-03
(PID.TID 0000.0001) %MON seaice_heff_max              =   8.3463713164051E+00
(PID.TID 0000.0001) %MON seaice_heff_min              =   0.0000000000000E+00
(PID.TID 0000.0001) %MON seaice_heff_mean             =   1.9971379289986E-01
(PID.TID 0000.0001) %MON seaice_heff_sd               =   9.6019405510274E-01
(PID.TID 0000.0001) %MON seaice_heff_del2             =   6.1740480740217E-03
(PID.TID 0000.0001) %MON seaice_hsnow_max             =   2.0073192634321E+00
(PID.TID 0000.0001) %MON seaice_hsnow_min             =   0.0000000000000E+00
(PID.TID 0000.0001) %MON seaice_hsnow_mean            =   2.2167353340739E-02
(PID.TID 0000.0001) %MON seaice_hsnow_sd              =   1.1758837393876E-01
(PID.TID 0000.0001) %MON seaice_hsnow_del2            =   1.4421838394848E-03
(PID.TID 0000.0001) // =======================================================
(PID.TID 0000.0001) // End MONITOR SEAICE statistics
(PID.TID 0000.0001) // =======================================================
 SEAICE_LSR: Residual Initial ipass,Uice,Vice=    1  3.62977905E-03  2.08909725E-03
 SEAICE_LSR (ipass=   1) iters,dU,Resid=     6  2.17408927E-05  2.24236300E-05
 SEAICE_LSR (ipass=   1) iters,dV,Resid=     6  5.87640647E-06  4.13706077E-06
 SEAICE_LSR: Residual Initial ipass,Uice,Vice=    2  2.49901485E-03  1.21920216E-03
 SEAICE_LSR (ipass=   2) iters,dU,Resid=     4  7.09675756E-05  2.31785214E-05
 SEAICE_LSR (ipass=   2) iters,dV,Resid=     4  3.55656039E-05  1.04773105E-05
 cg2d: Sum(rhs),rhsMax =  -5.10327979342228E+01  4.72452896087447E+01
(PID.TID 0000.0001)      cg2d_init_res =   3.71514654093250E-01
(PID.TID 0000.0001)      cg2d_iters(min,last) =      -1      11
(PID.TID 0000.0001)      cg2d_last_res =   4.37051109909771E-08
(PID.TID 0000.0001) // =======================================================
(PID.TID 0000.0001) // Begin MONITOR dynamic field statistics
(PID.TID 0000.0001) // =======================================================
(PID.TID 0000.0001) %MON time_tsnumber                =                    36
(PID.TID 0000.0001) %MON time_secondsf                =   3.2400000000000E+04
(PID.TID 0000.0001) %MON dynstat_eta_max              =   2.1106655869387E+00
(PID.TID 0000.0001) %MON dynstat_eta_min              =  -8.6010366763275E-01
(PID.TID 0000.0001) %MON dynstat_eta_mean             =   2.8016189638775E-02
(PID.TID 0000.0001) %MON dynstat_eta_sd               =   1.0025477679219E-01
(PID.TID 0000.0001) %MON dynstat_eta_del2             =   1.9748997292185E-03
(PID.TID 0000.0001) %MON dynstat_uvel_max             =   4.0350453926715E-01
(PID.TID 0000.0001) %MON dynstat_uvel_min             =  -1.0065500215670E+00
(PID.TID 0000.0001) %MON dynstat_uvel_mean            =   2.1676631165247E-05
(PID.TID 0000.0001) %MON dynstat_uvel_sd              =   6.2272720306030E-03
(PID.TID 0000.0001) %MON dynstat_uvel_del2            =   7.3961892494226E-05
(PID.TID 0000.0001) %MON dynstat_vvel_max             =   1.1783385611154E+00
(PID.TID 0000.0001) %MON dynstat_vvel_min             =  -1.1660423046280E+00
(PID.TID 0000.0001) %MON dynstat_vvel_mean            =   1.2723991160541E-05
(PID.TID 0000.0001) %MON dynstat_vvel_sd              =   7.3433566201246E-03
(PID.TID 0000.0001) %MON dynstat_vvel_del2            =   1.1989529733615E-04
(PID.TID 0000.0001) %MON dynstat_wvel_max             =   2.1608008664461E-04
(PID.TID 0000.0001) %MON dynstat_wvel_min             =  -2.5680269695744E-04
(PID.TID 0000.0001) %MON dynstat_wvel_mean            =  -1.0353113285429E-08
(PID.TID 0000.0001) %MON dynstat_wvel_sd              =   7.7812971084117E-06
(PID.TID 0000.0001) %MON dynstat_wvel_del2            =   7.5454459465512E-08
(PID.TID 0000.0001) %MON dynstat_theta_max            =   2.1123449113960E+01
(PID.TID 0000.0001) %MON dynstat_theta_min            =   1.6138672901321E+01
(PID.TID 0000.0001) %MON dynstat_theta_mean           =   1.9997882547348E+01
(PID.TID 0000.0001) %MON dynstat_theta_sd             =   2.1442687976631E-02
(PID.TID 0000.0001) %MON dynstat_theta_del2           =   3.2170143470945E-04
(PID.TID 0000.0001) %MON dynstat_salt_max             =   3.5078460772477E+01
(PID.TID 0000.0001) %MON dynstat_salt_min             =   3.0742084411386E+01
(PID.TID 0000.0001) %MON dynstat_salt_mean            =   3.4999724367142E+01
(PID.TID 0000.0001) %MON dynstat_salt_sd              =   2.0779238158581E-02
(PID.TID 0000.0001) %MON dynstat_salt_del2            =   5.5558454099526E-04
(PID.TID 0000.0001) %MON dynstat_sst_max              =   2.1123449113960E+01
(PID.TID 0000.0001) %MON dynstat_sst_min              =   1.6138672901321E+01
(PID.TID 0000.0001) %MON dynstat_sst_mean             =   2.0032607386801E+01
(PID.TID 0000.0001) %MON dynstat_sst_sd               =   1.5437982049001E-01
(PID.TID 0000.0001) %MON dynstat_sst_del2             =   3.6951393885180E-03
(PID.TID 0000.0001) %MON dynstat_sss_max              =   3.5078460772477E+01
(PID.TID 0000.0001) %MON dynstat_sss_min              =   3.0742084411386E+01
(PID.TID 0000.0001) %MON dynstat_sss_mean             =   3.4986798364112E+01
(PID.TID 0000.0001) %MON dynstat_sss_sd               =   1.7738469045512E-01
(PID.TID 0000.0001) %MON dynstat_sss_del2             =   6.9768737814038E-03
(PID.TID 0000.0001) %MON forcing_qnet_max             =   4.6514874202771E+03
(PID.TID 0000.0001) %MON forcing_qnet_min             =  -5.5789683139390E+03
(PID.TID 0000.0001) %MON forcing_qnet_mean            =  -4.6349877609659E+01
(PID.TID 0000.0001) %MON forcing_qnet_sd              =   6.0135948018597E+02
(PID.TID 0000.0001) %MON forcing_qnet_del2            =   1.0055647266383E+01
(PID.TID 0000.0001) %MON forcing_qsw_max              =   0.0000000000000E+00
(PID.TID 0000.0001) %MON forcing_qsw_min              =  -1.0594451282656E+02
(PID.TID 0000.0001) %MON forcing_qsw_mean             =  -1.5115808246445E+01
(PID.TID 0000.0001) %MON forcing_qsw_sd               =   2.5228435919079E+01
(PID.TID 0000.0001) %MON forcing_qsw_del2             =   1.7913663744710E-01
(PID.TID 0000.0001) %MON forcing_empmr_max            =   7.7197728678584E-03
(PID.TID 0000.0001) %MON forcing_empmr_min            =  -1.1096415668726E-01
(PID.TID 0000.0001) %MON forcing_empmr_mean           =  -4.7542214539886E-04
(PID.TID 0000.0001) %MON forcing_empmr_sd             =   4.9030127969457E-03
(PID.TID 0000.0001) %MON forcing_empmr_del2           =   1.9359655930475E-04
(PID.TID 0000.0001) %MON forcing_fu_max               =   7.1610261940733E-01
(PID.TID 0000.0001) %MON forcing_fu_min               =  -5.7200542186253E-01
(PID.TID 0000.0001) %MON forcing_fu_mean              =  -4.2959080285017E-04
(PID.TID 0000.0001) %MON forcing_fu_sd                =   9.1877036066503E-02
(PID.TID 0000.0001) %MON forcing_fu_del2              =   7.6557288940128E-04
(PID.TID 0000.0001) %MON forcing_fv_max               =   4.8606599968854E-01
(PID.TID 0000.0001) %MON forcing_fv_min               =  -4.2717930381927E-01
(PID.TID 0000.0001) %MON forcing_fv_mean              =  -3.8737124384015E-03
(PID.TID 0000.0001) %MON forcing_fv_sd                =   8.0192673379242E-02
(PID.TID 0000.0001) %MON forcing_fv_del2              =   6.7526316568997E-04
(PID.TID 0000.0001) %MON trAdv_CFL_u_max              =   3.3886429065610E-03
(PID.TID 0000.0001) %MON trAdv_CFL_v_max              =   5.0508281877338E-03
(PID.TID 0000.0001) %MON trAdv_CFL_w_max              =   1.8390411441742E-03
(PID.TID 0000.0001) %MON advcfl_uvel_max              =   3.3566094263380E-03
(PID.TID 0000.0001) %MON advcfl_vvel_max              =   3.8052213775378E-03
(PID.TID 0000.0001) %MON advcfl_wvel_max              =   3.8596228412960E-03
(PID.TID 0000.0001) %MON advcfl_W_hf_max              =   2.6272016345345E-03
(PID.TID 0000.0001) %MON pe_b_mean                    =   1.4435349183301E-05
(PID.TID 0000.0001) %MON ke_max                       =   6.0115294975046E-01
(PID.TID 0000.0001) %MON ke_mean                      =   4.2834910870615E-05
(PID.TID 0000.0001) %MON ke_vol                       =   1.3398124896480E+18
(PID.TID 0000.0001) %MON vort_r_min                   =  -4.8310879882535E-06
(PID.TID 0000.0001) %MON vort_r_max                   =   3.8893075304469E-06
(PID.TID 0000.0001) %MON vort_a_mean                  =  -2.0549865324846E-05
(PID.TID 0000.0001) %MON vort_a_sd                    =   7.5259236770648E-05
(PID.TID 0000.0001) %MON vort_p_mean                  =  -2.4783338679326E-05
(PID.TID 0000.0001) %MON vort_p_sd                    =   1.2810543745673E-04
(PID.TID 0000.0001) %MON surfExpan_theta_mean         =  -7.7764883060564E-07
(PID.TID 0000.0001) %MON surfExpan_salt_mean          =   8.2863230075316E-07
(PID.TID 0000.0001) // =======================================================
(PID.TID 0000.0001) // End MONITOR dynamic field statistics
(PID.TID 0000.0001) // =======================================================
(PID.TID 0000.0001) // =======================================================
(PID.TID 0000.0001) // Begin MONITOR SEAICE statistics
(PID.TID 0000.0001) // =======================================================
(PID.TID 0000.0001) %MON seaice_tsnumber              =                    36
(PID.TID 0000.0001) %MON seaice_time_sec              =   3.2400000000000E+04
(PID.TID 0000.0001) %MON seaice_uice_max              =   2.4849125983407E-01
(PID.TID 0000.0001) %MON seaice_uice_min              =  -9.4490532849899E-01
(PID.TID 0000.0001) %MON seaice_uice_mean             =  -4.8038753432922E-03
(PID.TID 0000.0001) %MON seaice_uice_sd               =   4.5123519340604E-02
(PID.TID 0000.0001) %MON seaice_uice_del2             =   8.3486524166549E-04
(PID.TID 0000.0001) %MON seaice_vice_max              =   1.1159450078556E+00
(PID.TID 0000.0001) %MON seaice_vice_min              =  -1.1619856337015E+00
(PID.TID 0000.0001) %MON seaice_vice_mean             =  -7.1015873034856E-03
(PID.TID 0000.0001) %MON seaice_vice_sd               =   5.6398087611492E-02
(PID.TID 0000.0001) %MON seaice_vice_del2             =   1.3694515518052E-03
(PID.TID 0000.0001) %MON seaice_area_max              =   9.9478796138288E-01
(PID.TID 0000.0001) %MON seaice_area_min              =   0.0000000000000E+00
(PID.TID 0000.0001) %MON seaice_area_mean             =   6.5395060987853E-02
(PID.TID 0000.0001) %MON seaice_area_sd               =   2.2697543354748E-01
(PID.TID 0000.0001) %MON seaice_area_del2             =   1.6395704029093E-03
(PID.TID 0000.0001) %MON seaice_heff_max              =   8.3437638314449E+00
(PID.TID 0000.0001) %MON seaice_heff_min              =   0.0000000000000E+00
(PID.TID 0000.0001) %MON seaice_heff_mean             =   1.9953910010999E-01
(PID.TID 0000.0001) %MON seaice_heff_sd               =   9.5970746470281E-01
(PID.TID 0000.0001) %MON seaice_heff_del2             =   6.1724330467976E-03
(PID.TID 0000.0001) %MON seaice_hsnow_max             =   2.0066080277710E+00
(PID.TID 0000.0001) %MON seaice_hsnow_min             =   0.0000000000000E+00
(PID.TID 0000.0001) %MON seaice_hsnow_mean            =   2.2149030588301E-02
(PID.TID 0000.0001) %MON seaice_hsnow_sd              =   1.1752956000628E-01
(PID.TID 0000.0001) %MON seaice_hsnow_del2            =   1.4414770943317E-03
(PID.TID 0000.0001) // =======================================================
(PID.TID 0000.0001) // End MONITOR SEAICE statistics
(PID.TID 0000.0001) // =======================================================
 Compute Stats, Diag. #    211  SIarea    vol(   0 ): 1.456E+15  Parms: SM      M1      
 Compute Stats, Diag. #    214  SIheff    vol(   0 ): 1.456E+15  Parms: SM      M1      
 Compute Stats, Diag. #    216  SIhsnow   vol(   0 ): 1.456E+15  Parms: SM      M1      
 Compute Stats, Diag. #     83  sIceLoad  vol(   0 ): 1.456E+15  Parms: SM      U1      
 Compute Stats, Diag. #    220  SIuice    vol(   0 ): 1.383E+15  Parms: UU      M1      
 Compute Stats, Diag. #    221  SIvice    vol(   0 ): 1.391E+15  Parms: VV      M1      
 Compute Stats, Diag. #    222  SItaux    vol(   0 ): 1.383E+15  Parms: UU      U1      
 Compute Stats, Diag. #    223  SItauy    vol(   0 ): 1.391E+15  Parms: VV      U1      
 Compute Stats, Diag. #    282  SIareaN   vol(   0 ): 7.278E+15  Parms: SM      MX      
 Compute Stats, Diag. #    281  SIheffN   vol(   0 ): 7.278E+15  Parms: SM      MX      
 Compute Stats, Diag. #    283  SIhsnowN  vol(   0 ): 7.278E+15  Parms: SM      MX      
 Compute Stats, Diag. #    287  SIqSnow   vol(   0 ): 7.278E+15  Parms: SM      MX      
 Compute Stats, Diag. #    286  SIqIce    vol(   0 ): 2.911E+16  Parms: SM      MX      
 Compute Stats, Diag. #    288  SImeltPd  vol(   0 ): 7.278E+15  Parms: SM      MX      
 Compute Stats, Diag. #    285  SItIces   vol(   0 ): 7.278E+15  Parms: SM      MX      
 Compute Stats, Diag. #    289  SIiceAge  vol(   0 ): 7.278E+15  Parms: SM      MX      
 Compute Stats, Diag. #    290  SI_dArea  vol(   0 ): 7.278E+15  Parms: SM      MX      
 Compute Stats, Diag. #    291  SI_dHeff  vol(   0 ): 7.278E+15  Parms: SM      MX      
 Compute Stats, Diag. #    292  SI_dHsnw  vol(   0 ): 7.278E+15  Parms: SM      MX      
 Compute Stats, Diag. #    295  SI_dQSnw  vol(   0 ): 7.278E+15  Parms: SM      MX      
 Compute Stats, Diag. #    294  SI_dQIce  vol(   0 ): 2.911E+16  Parms: SM      MX      
 SEAICE_LSR: Residual Initial ipass,Uice,Vice=    1  3.56731048E-03  2.13400989E-03
 SEAICE_LSR (ipass=   1) iters,dU,Resid=     6  1.96181417E-05  2.13255879E-05
 SEAICE_LSR (ipass=   1) iters,dV,Resid=     6  5.37074035E-06  3.61659153E-06
 SEAICE_LSR: Residual Initial ipass,Uice,Vice=    2  2.44569643E-03  1.34742980E-03
 SEAICE_LSR (ipass=   2) iters,dU,Resid=     4  6.77399701E-05  2.42379947E-05
 SEAICE_LSR (ipass=   2) iters,dV,Resid=     4  3.33569295E-05  1.05861169E-05
 cg2d: Sum(rhs),rhsMax =  -4.86844551454188E+01  5.02485625054592E+01
(PID.TID 0000.0001)      cg2d_init_res =   3.42931497929200E-01
(PID.TID 0000.0001)      cg2d_iters(min,last) =      -1      11
(PID.TID 0000.0001)      cg2d_last_res =   3.64997636200126E-08
(PID.TID 0000.0001) // =======================================================
(PID.TID 0000.0001) // Begin MONITOR dynamic field statistics
(PID.TID 0000.0001) // =======================================================
(PID.TID 0000.0001) %MON time_tsnumber                =                    37
(PID.TID 0000.0001) %MON time_secondsf                =   3.3300000000000E+04
(PID.TID 0000.0001) %MON dynstat_eta_max              =   2.2438823278942E+00
(PID.TID 0000.0001) %MON dynstat_eta_min              =  -7.7998313188946E-01
(PID.TID 0000.0001) %MON dynstat_eta_mean             =   2.8425959260990E-02
(PID.TID 0000.0001) %MON dynstat_eta_sd               =   9.9238167922114E-02
(PID.TID 0000.0001) %MON dynstat_eta_del2             =   1.9075723574821E-03
(PID.TID 0000.0001) %MON dynstat_uvel_max             =   4.1595060808940E-01
(PID.TID 0000.0001) %MON dynstat_uvel_min             =  -1.0274739291038E+00
(PID.TID 0000.0001) %MON dynstat_uvel_mean            =  -9.9378638047867E-06
(PID.TID 0000.0001) %MON dynstat_uvel_sd              =   6.2751016267739E-03
(PID.TID 0000.0001) %MON dynstat_uvel_del2            =   7.4053634186084E-05
(PID.TID 0000.0001) %MON dynstat_vvel_max             =   1.1723908913357E+00
(PID.TID 0000.0001) %MON dynstat_vvel_min             =  -1.1143772650528E+00
(PID.TID 0000.0001) %MON dynstat_vvel_mean            =   4.2680230193354E-05
(PID.TID 0000.0001) %MON dynstat_vvel_sd              =   7.1987040983585E-03
(PID.TID 0000.0001) %MON dynstat_vvel_del2            =   1.1838955658014E-04
(PID.TID 0000.0001) %MON dynstat_wvel_max             =   2.1732348596854E-04
(PID.TID 0000.0001) %MON dynstat_wvel_min             =  -2.4673832948100E-04
(PID.TID 0000.0001) %MON dynstat_wvel_mean            =   9.6531347318972E-10
(PID.TID 0000.0001) %MON dynstat_wvel_sd              =   7.7133168677969E-06
(PID.TID 0000.0001) %MON dynstat_wvel_del2            =   7.5353802580977E-08
(PID.TID 0000.0001) %MON dynstat_theta_max            =   2.1148518820215E+01
(PID.TID 0000.0001) %MON dynstat_theta_min            =   1.6146533436253E+01
(PID.TID 0000.0001) %MON dynstat_theta_mean           =   1.9997885003970E+01
(PID.TID 0000.0001) %MON dynstat_theta_sd             =   2.1578757919198E-02
(PID.TID 0000.0001) %MON dynstat_theta_del2           =   3.2301153081634E-04
(PID.TID 0000.0001) %MON dynstat_salt_max             =   3.5078460308941E+01
(PID.TID 0000.0001) %MON dynstat_salt_min             =   3.0667669664520E+01
(PID.TID 0000.0001) %MON dynstat_salt_mean            =   3.4999720075812E+01
(PID.TID 0000.0001) %MON dynstat_salt_sd              =   2.1145309268791E-02
(PID.TID 0000.0001) %MON dynstat_salt_del2            =   5.6525888342732E-04
(PID.TID 0000.0001) %MON dynstat_sst_max              =   2.1148518820215E+01
(PID.TID 0000.0001) %MON dynstat_sst_min              =   1.6146533436253E+01
(PID.TID 0000.0001) %MON dynstat_sst_mean             =   2.0033647887388E+01
(PID.TID 0000.0001) %MON dynstat_sst_sd               =   1.5540417608553E-01
(PID.TID 0000.0001) %MON dynstat_sst_del2             =   3.7124965312481E-03
(PID.TID 0000.0001) %MON dynstat_sss_max              =   3.5078460308941E+01
(PID.TID 0000.0001) %MON dynstat_sss_min              =   3.0667669664520E+01
(PID.TID 0000.0001) %MON dynstat_sss_mean             =   3.4986543387177E+01
(PID.TID 0000.0001) %MON dynstat_sss_sd               =   1.8052137917710E-01
(PID.TID 0000.0001) %MON dynstat_sss_del2             =   7.0983983519442E-03
(PID.TID 0000.0001) %MON forcing_qnet_max             =   7.6717744140625E+03
(PID.TID 0000.0001) %MON forcing_qnet_min             =  -5.5109404808478E+03
(PID.TID 0000.0001) %MON forcing_qnet_mean            =  -4.1085978424550E+01
(PID.TID 0000.0001) %MON forcing_qnet_sd              =   6.0034059147221E+02
(PID.TID 0000.0001) %MON forcing_qnet_del2            =   9.9169097794399E+00
(PID.TID 0000.0001) %MON forcing_qsw_max              =   0.0000000000000E+00
(PID.TID 0000.0001) %MON forcing_qsw_min              =  -1.0817915383608E+02
(PID.TID 0000.0001) %MON forcing_qsw_mean             =  -1.4670060354773E+01
(PID.TID 0000.0001) %MON forcing_qsw_sd               =   2.5472015514376E+01
(PID.TID 0000.0001) %MON forcing_qsw_del2             =   1.6922714081063E-01
(PID.TID 0000.0001) %MON forcing_empmr_max            =   7.6402621343732E-03
(PID.TID 0000.0001) %MON forcing_empmr_min            =  -1.0982047766447E-01
(PID.TID 0000.0001) %MON forcing_empmr_mean           =  -4.7123506554787E-04
(PID.TID 0000.0001) %MON forcing_empmr_sd             =   4.8529661403520E-03
(PID.TID 0000.0001) %MON forcing_empmr_del2           =   1.9159446493637E-04
(PID.TID 0000.0001) %MON forcing_fu_max               =   7.1227068574016E-01
(PID.TID 0000.0001) %MON forcing_fu_min               =  -5.7153597939516E-01
(PID.TID 0000.0001) %MON forcing_fu_mean              =  -5.2959363441783E-04
(PID.TID 0000.0001) %MON forcing_fu_sd                =   9.1390973095255E-02
(PID.TID 0000.0001) %MON forcing_fu_del2              =   7.6420904899440E-04
(PID.TID 0000.0001) %MON forcing_fv_max               =   4.8506124332617E-01
(PID.TID 0000.0001) %MON forcing_fv_min               =  -4.2343851882936E-01
(PID.TID 0000.0001) %MON forcing_fv_mean              =  -4.0483537795173E-03
(PID.TID 0000.0001) %MON forcing_fv_sd                =   8.0184733988127E-02
(PID.TID 0000.0001) %MON forcing_fv_del2              =   6.7378537398908E-04
(PID.TID 0000.0001) %MON trAdv_CFL_u_max              =   3.4719862482515E-03
(PID.TID 0000.0001) %MON trAdv_CFL_v_max              =   4.8312869767596E-03
(PID.TID 0000.0001) %MON trAdv_CFL_w_max              =   1.9603560340105E-03
(PID.TID 0000.0001) %MON advcfl_uvel_max              =   3.4263857750230E-03
(PID.TID 0000.0001) %MON advcfl_vvel_max              =   3.6366195075351E-03
(PID.TID 0000.0001) %MON advcfl_wvel_max              =   3.8198427013729E-03
(PID.TID 0000.0001) %MON advcfl_W_hf_max              =   2.6576975741144E-03
(PID.TID 0000.0001) %MON pe_b_mean                    =   1.4195985058621E-05
(PID.TID 0000.0001) %MON ke_max                       =   5.7851091791084E-01
(PID.TID 0000.0001) %MON ke_mean                      =   4.2134204643693E-05
(PID.TID 0000.0001) %MON ke_vol                       =   1.3398126400826E+18
(PID.TID 0000.0001) %MON vort_r_min                   =  -4.5649871334591E-06
(PID.TID 0000.0001) %MON vort_r_max                   =   3.8696762312377E-06
(PID.TID 0000.0001) %MON vort_a_mean                  =  -2.0549865324846E-05
(PID.TID 0000.0001) %MON vort_a_sd                    =   7.5259244956383E-05
(PID.TID 0000.0001) %MON vort_p_mean                  =  -2.4783336370951E-05
(PID.TID 0000.0001) %MON vort_p_sd                    =   1.2810547123149E-04
(PID.TID 0000.0001) %MON surfExpan_theta_mean         =  -7.5022141849415E-07
(PID.TID 0000.0001) %MON surfExpan_salt_mean          =   8.2945907959037E-07
(PID.TID 0000.0001) // =======================================================
(PID.TID 0000.0001) // End MONITOR dynamic field statistics
(PID.TID 0000.0001) // =======================================================
(PID.TID 0000.0001) // =======================================================
(PID.TID 0000.0001) // Begin MONITOR SEAICE statistics
(PID.TID 0000.0001) // =======================================================
(PID.TID 0000.0001) %MON seaice_tsnumber              =                    37
(PID.TID 0000.0001) %MON seaice_time_sec              =   3.3300000000000E+04
(PID.TID 0000.0001) %MON seaice_uice_max              =   2.4775266704711E-01
(PID.TID 0000.0001) %MON seaice_uice_min              =  -9.9053356762278E-01
(PID.TID 0000.0001) %MON seaice_uice_mean             =  -5.0048813308624E-03
(PID.TID 0000.0001) %MON seaice_uice_sd               =   4.5316309305048E-02
(PID.TID 0000.0001) %MON seaice_uice_del2             =   8.3881980671032E-04
(PID.TID 0000.0001) %MON seaice_vice_max              =   1.1275501338774E+00
(PID.TID 0000.0001) %MON seaice_vice_min              =  -1.1265912744894E+00
(PID.TID 0000.0001) %MON seaice_vice_mean             =  -7.2360554299100E-03
(PID.TID 0000.0001) %MON seaice_vice_sd               =   5.5717263799761E-02
(PID.TID 0000.0001) %MON seaice_vice_del2             =   1.3575192913574E-03
(PID.TID 0000.0001) %MON seaice_area_max              =   9.9451380074213E-01
(PID.TID 0000.0001) %MON seaice_area_min              =   0.0000000000000E+00
(PID.TID 0000.0001) %MON seaice_area_mean             =   6.5301603396370E-02
(PID.TID 0000.0001) %MON seaice_area_sd               =   2.2672100996618E-01
(PID.TID 0000.0001) %MON seaice_area_del2             =   1.6350722343609E-03
(PID.TID 0000.0001) %MON seaice_heff_max              =   8.3411561985802E+00
(PID.TID 0000.0001) %MON seaice_heff_min              =   0.0000000000000E+00
(PID.TID 0000.0001) %MON seaice_heff_mean             =   1.9936450304498E-01
(PID.TID 0000.0001) %MON seaice_heff_sd               =   9.5922065319507E-01
(PID.TID 0000.0001) %MON seaice_heff_del2             =   6.1708195042041E-03
(PID.TID 0000.0001) %MON seaice_hsnow_max             =   2.0058898035723E+00
(PID.TID 0000.0001) %MON seaice_hsnow_min             =   0.0000000000000E+00
(PID.TID 0000.0001) %MON seaice_hsnow_mean            =   2.2130710498736E-02
(PID.TID 0000.0001) %MON seaice_hsnow_sd              =   1.1747014191253E-01
(PID.TID 0000.0001) %MON seaice_hsnow_del2            =   1.4407699651666E-03
(PID.TID 0000.0001) // =======================================================
(PID.TID 0000.0001) // End MONITOR SEAICE statistics
(PID.TID 0000.0001) // =======================================================
 Computing Diagnostic #    211  SIarea       Counter:       1   Parms: SM      M1      
 Computing Diagnostic #    214  SIheff       Counter:       1   Parms: SM      M1      
 Computing Diagnostic #    216  SIhsnow      Counter:       1   Parms: SM      M1      
 Computing Diagnostic #     83  sIceLoad     Counter:       1   Parms: SM      U1      
 Computing Diagnostic #    220  SIuice       Counter:       1   Parms: UU      M1      
           Vector  Mate for  SIuice       Diagnostic #    221  SIvice   exists 
 Computing Diagnostic #    221  SIvice       Counter:       1   Parms: VV      M1      
           Vector  Mate for  SIvice       Diagnostic #    220  SIuice   exists 
 Computing Diagnostic #    222  SItaux       Counter:       1   Parms: UU      U1      
           Vector  Mate for  SItaux       Diagnostic #    223  SItauy   exists 
 Computing Diagnostic #    223  SItauy       Counter:       1   Parms: VV      U1      
           Vector  Mate for  SItauy       Diagnostic #    222  SItaux   exists 
 Computing Diagnostic #    284  CPLoWGHT     Counter:       1   Parms: SM      M1      
 Computing Diagnostic #    282  SIareaN      Counter:       1   Parms: SM      MX      
 Computing Diagnostic #    281  SIheffN      Counter:       1   Parms: SM      MX      
 Computing Diagnostic #    283  SIhsnowN     Counter:       1   Parms: SM      MX      
 Computing Diagnostic #    287  SIqSnow      Counter:       1   Parms: SM      MX      
 Computing Diagnostic #    288  SImeltPd     Counter:       1   Parms: SM      MX      
 Computing Diagnostic #    285  SItIces      Counter:       1   Parms: SM      MX      
 Computing Diagnostic #    289  SIiceAge     Counter:       1   Parms: SM      MX      
 Computing Diagnostic #    290  SI_dArea     Counter:       1   Parms: SM      MX      
 Computing Diagnostic #    291  SI_dHeff     Counter:       1   Parms: SM      MX      
 Computing Diagnostic #    292  SI_dHsnw     Counter:       1   Parms: SM      MX      
 Computing Diagnostic #    295  SI_dQSnw     Counter:       1   Parms: SM      MX      
 Computing Diagnostic #    286  SIqIce       Counter:       1   Parms: SM      MX      
 Computing Diagnostic #    294  SI_dQIce     Counter:       1   Parms: SM      MX      
 SEAICE_LSR: Residual Initial ipass,Uice,Vice=    1  3.37984706E-03  2.27702622E-03
 SEAICE_LSR (ipass=   1) iters,dU,Resid=     4  8.17912664E-05  4.25210465E-05
 SEAICE_LSR (ipass=   1) iters,dV,Resid=     4  4.91729428E-05  1.49860937E-05
 SEAICE_LSR: Residual Initial ipass,Uice,Vice=    2  2.27091478E-03  1.55025629E-03
 SEAICE_LSR (ipass=   2) iters,dU,Resid=     4  5.77459387E-05  2.89032631E-05
 SEAICE_LSR (ipass=   2) iters,dV,Resid=     4  2.86338826E-05  1.15653873E-05
 cg2d: Sum(rhs),rhsMax =  -4.67176843771648E+01  5.31146685956856E+01
(PID.TID 0000.0001)      cg2d_init_res =   3.17944676433187E-01
(PID.TID 0000.0001)      cg2d_iters(min,last) =      -1      11
(PID.TID 0000.0001)      cg2d_last_res =   2.98129274767180E-08
(PID.TID 0000.0001) // =======================================================
(PID.TID 0000.0001) // Begin MONITOR dynamic field statistics
(PID.TID 0000.0001) // =======================================================
(PID.TID 0000.0001) %MON time_tsnumber                =                    38
(PID.TID 0000.0001) %MON time_secondsf                =   3.4200000000000E+04
(PID.TID 0000.0001) %MON dynstat_eta_max              =   2.3709857757966E+00
(PID.TID 0000.0001) %MON dynstat_eta_min              =  -7.8692105611101E-01
(PID.TID 0000.0001) %MON dynstat_eta_mean             =   2.8833473076048E-02
(PID.TID 0000.0001) %MON dynstat_eta_sd               =   9.8838612634325E-02
(PID.TID 0000.0001) %MON dynstat_eta_del2             =   1.8786246909452E-03
(PID.TID 0000.0001) %MON dynstat_uvel_max             =   4.2685550743939E-01
(PID.TID 0000.0001) %MON dynstat_uvel_min             =  -1.0284813122572E+00
(PID.TID 0000.0001) %MON dynstat_uvel_mean            =  -3.9134461516620E-05
(PID.TID 0000.0001) %MON dynstat_uvel_sd              =   6.3035023600802E-03
(PID.TID 0000.0001) %MON dynstat_uvel_del2            =   7.4000157074911E-05
(PID.TID 0000.0001) %MON dynstat_vvel_max             =   1.1522764771654E+00
(PID.TID 0000.0001) %MON dynstat_vvel_min             =  -1.0469719324431E+00
(PID.TID 0000.0001) %MON dynstat_vvel_mean            =   7.6617432601554E-05
(PID.TID 0000.0001) %MON dynstat_vvel_sd              =   7.0412590743496E-03
(PID.TID 0000.0001) %MON dynstat_vvel_del2            =   1.1623109844535E-04
(PID.TID 0000.0001) %MON dynstat_wvel_max             =   2.1690845247535E-04
(PID.TID 0000.0001) %MON dynstat_wvel_min             =  -2.3879124138406E-04
(PID.TID 0000.0001) %MON dynstat_wvel_mean            =   3.6674102173584E-09
(PID.TID 0000.0001) %MON dynstat_wvel_sd              =   7.6571921030927E-06
(PID.TID 0000.0001) %MON dynstat_wvel_del2            =   7.5375406177046E-08
(PID.TID 0000.0001) %MON dynstat_theta_max            =   2.1173285537213E+01
(PID.TID 0000.0001) %MON dynstat_theta_min            =   1.6154129685305E+01
(PID.TID 0000.0001) %MON dynstat_theta_mean           =   1.9997887304031E+01
(PID.TID 0000.0001) %MON dynstat_theta_sd             =   2.1714706278447E-02
(PID.TID 0000.0001) %MON dynstat_theta_del2           =   3.2432912660294E-04
(PID.TID 0000.0001) %MON dynstat_salt_max             =   3.5078459652788E+01
(PID.TID 0000.0001) %MON dynstat_salt_min             =   3.0594930453569E+01
(PID.TID 0000.0001) %MON dynstat_salt_mean            =   3.4999715854858E+01
(PID.TID 0000.0001) %MON dynstat_salt_sd              =   2.1503426509693E-02
(PID.TID 0000.0001) %MON dynstat_salt_del2            =   5.7470980663592E-04
(PID.TID 0000.0001) %MON dynstat_sst_max              =   2.1173285537213E+01
(PID.TID 0000.0001) %MON dynstat_sst_min              =   1.6154129685305E+01
(PID.TID 0000.0001) %MON dynstat_sst_mean             =   2.0034677283414E+01
(PID.TID 0000.0001) %MON dynstat_sst_sd               =   1.5642302792628E-01
(PID.TID 0000.0001) %MON dynstat_sst_del2             =   3.7299232973942E-03
(PID.TID 0000.0001) %MON dynstat_sss_max              =   3.5078459652788E+01
(PID.TID 0000.0001) %MON dynstat_sss_min              =   3.0594930453569E+01
(PID.TID 0000.0001) %MON dynstat_sss_mean             =   3.4986296015594E+01
(PID.TID 0000.0001) %MON dynstat_sss_sd               =   1.8358908460695E-01
(PID.TID 0000.0001) %MON dynstat_sss_del2             =   7.2171209394709E-03
(PID.TID 0000.0001) %MON forcing_qnet_max             =   4.5339386575669E+03
(PID.TID 0000.0001) %MON forcing_qnet_min             =  -5.4413586599311E+03
(PID.TID 0000.0001) %MON forcing_qnet_mean            =  -3.8489497268762E+01
(PID.TID 0000.0001) %MON forcing_qnet_sd              =   5.8644423997811E+02
(PID.TID 0000.0001) %MON forcing_qnet_del2            =   9.5982233873012E+00
(PID.TID 0000.0001) %MON forcing_qsw_max              =   0.0000000000000E+00
(PID.TID 0000.0001) %MON forcing_qsw_min              =  -1.0843028622602E+02
(PID.TID 0000.0001) %MON forcing_qsw_mean             =  -1.4525220540749E+01
(PID.TID 0000.0001) %MON forcing_qsw_sd               =   2.5557824166259E+01
(PID.TID 0000.0001) %MON forcing_qsw_del2             =   1.6593600192032E-01
(PID.TID 0000.0001) %MON forcing_empmr_max            =   7.5614410452545E-03
(PID.TID 0000.0001) %MON forcing_empmr_min            =  -1.0868855565786E-01
(PID.TID 0000.0001) %MON forcing_empmr_mean           =  -4.6864088731682E-04
(PID.TID 0000.0001) %MON forcing_empmr_sd             =   4.8034396826185E-03
(PID.TID 0000.0001) %MON forcing_empmr_del2           =   1.8961907226397E-04
(PID.TID 0000.0001) %MON forcing_fu_max               =   7.0148688044319E-01
(PID.TID 0000.0001) %MON forcing_fu_min               =  -5.6951983748631E-01
(PID.TID 0000.0001) %MON forcing_fu_mean              =  -6.1782752885647E-04
(PID.TID 0000.0001) %MON forcing_fu_sd                =   9.0902521203043E-02
(PID.TID 0000.0001) %MON forcing_fu_del2              =   7.6207356646413E-04
(PID.TID 0000.0001) %MON forcing_fv_max               =   4.8331729549999E-01
(PID.TID 0000.0001) %MON forcing_fv_min               =  -4.1827306793377E-01
(PID.TID 0000.0001) %MON forcing_fv_mean              =  -4.1906420309638E-03
(PID.TID 0000.0001) %MON forcing_fv_sd                =   8.0134328410839E-02
(PID.TID 0000.0001) %MON forcing_fv_del2              =   6.7207118314025E-04
(PID.TID 0000.0001) %MON trAdv_CFL_u_max              =   3.4882513257022E-03
(PID.TID 0000.0001) %MON trAdv_CFL_v_max              =   4.5580646437787E-03
(PID.TID 0000.0001) %MON trAdv_CFL_w_max              =   2.0700306084158E-03
(PID.TID 0000.0001) %MON advcfl_uvel_max              =   3.4297451627498E-03
(PID.TID 0000.0001) %MON advcfl_vvel_max              =   3.4531068984267E-03
(PID.TID 0000.0001) %MON advcfl_wvel_max              =   3.7804715011431E-03
(PID.TID 0000.0001) %MON advcfl_W_hf_max              =   2.6656639185283E-03
(PID.TID 0000.0001) %MON pe_b_mean                    =   1.4121636663871E-05
(PID.TID 0000.0001) %MON ke_max                       =   5.3906404628521E-01
(PID.TID 0000.0001) %MON ke_mean                      =   4.1260595726121E-05
(PID.TID 0000.0001) %MON ke_vol                       =   1.3398127891923E+18
(PID.TID 0000.0001) %MON vort_r_min                   =  -4.2622782077486E-06
(PID.TID 0000.0001) %MON vort_r_max                   =   4.0007088699374E-06
(PID.TID 0000.0001) %MON vort_a_mean                  =  -2.0549865324846E-05
(PID.TID 0000.0001) %MON vort_a_sd                    =   7.5259254435951E-05
(PID.TID 0000.0001) %MON vort_p_mean                  =  -2.4783334118753E-05
(PID.TID 0000.0001) %MON vort_p_sd                    =   1.2810550323226E-04
(PID.TID 0000.0001) %MON surfExpan_theta_mean         =  -7.1342846691878E-07
(PID.TID 0000.0001) %MON surfExpan_salt_mean          =   8.2904567847172E-07
(PID.TID 0000.0001) // =======================================================
(PID.TID 0000.0001) // End MONITOR dynamic field statistics
(PID.TID 0000.0001) // =======================================================
(PID.TID 0000.0001) // =======================================================
(PID.TID 0000.0001) // Begin MONITOR SEAICE statistics
(PID.TID 0000.0001) // =======================================================
(PID.TID 0000.0001) %MON seaice_tsnumber              =                    38
(PID.TID 0000.0001) %MON seaice_time_sec              =   3.4200000000000E+04
(PID.TID 0000.0001) %MON seaice_uice_max              =   2.4706629394571E-01
(PID.TID 0000.0001) %MON seaice_uice_min              =  -1.0152741796280E+00
(PID.TID 0000.0001) %MON seaice_uice_mean             =  -5.2019206727962E-03
(PID.TID 0000.0001) %MON seaice_uice_sd               =   4.5391553640826E-02
(PID.TID 0000.0001) %MON seaice_uice_del2             =   8.4091917168456E-04
(PID.TID 0000.0001) %MON seaice_vice_max              =   1.1238816996928E+00
(PID.TID 0000.0001) %MON seaice_vice_min              =  -1.0739497882408E+00
(PID.TID 0000.0001) %MON seaice_vice_mean             =  -7.3822985100021E-03
(PID.TID 0000.0001) %MON seaice_vice_sd               =   5.4831664167752E-02
(PID.TID 0000.0001) %MON seaice_vice_del2             =   1.3359442211876E-03
(PID.TID 0000.0001) %MON seaice_area_max              =   9.9425729486286E-01
(PID.TID 0000.0001) %MON seaice_area_min              =   0.0000000000000E+00
(PID.TID 0000.0001) %MON seaice_area_mean             =   6.5208195260338E-02
(PID.TID 0000.0001) %MON seaice_area_sd               =   2.2646683127616E-01
(PID.TID 0000.0001) %MON seaice_area_del2             =   1.6305648568218E-03
(PID.TID 0000.0001) %MON seaice_heff_max              =   8.3385483753369E+00
(PID.TID 0000.0001) %MON seaice_heff_min              =   0.0000000000000E+00
(PID.TID 0000.0001) %MON seaice_heff_mean             =   1.9919002043886E-01
(PID.TID 0000.0001) %MON seaice_heff_sd               =   9.5873360938006E-01
(PID.TID 0000.0001) %MON seaice_heff_del2             =   6.1692050756714E-03
(PID.TID 0000.0001) %MON seaice_hsnow_max             =   2.0051773481621E+00
(PID.TID 0000.0001) %MON seaice_hsnow_min             =   0.0000000000000E+00
(PID.TID 0000.0001) %MON seaice_hsnow_mean            =   2.2112259137647E-02
(PID.TID 0000.0001) %MON seaice_hsnow_sd              =   1.1741057113520E-01
(PID.TID 0000.0001) %MON seaice_hsnow_del2            =   1.4400590466046E-03
(PID.TID 0000.0001) // =======================================================
(PID.TID 0000.0001) // End MONITOR SEAICE statistics
(PID.TID 0000.0001) // =======================================================
 SEAICE_LSR: Residual Initial ipass,Uice,Vice=    1  3.05603201E-03  2.45140295E-03
 SEAICE_LSR (ipass=   1) iters,dU,Resid=     4  6.82372986E-05  4.52075463E-05
 SEAICE_LSR (ipass=   1) iters,dV,Resid=     4  4.45062091E-05  1.71161564E-05
 SEAICE_LSR: Residual Initial ipass,Uice,Vice=    2  2.03952694E-03  1.70934856E-03
 SEAICE_LSR (ipass=   2) iters,dU,Resid=     4  4.89347687E-05  3.29255652E-05
 SEAICE_LSR (ipass=   2) iters,dV,Resid=     4  2.66252734E-05  1.26493163E-05
 cg2d: Sum(rhs),rhsMax =  -4.50865955767215E+01  5.58089964222412E+01
(PID.TID 0000.0001)      cg2d_init_res =   2.95756711746948E-01
(PID.TID 0000.0001)      cg2d_iters(min,last) =      -1      11
(PID.TID 0000.0001)      cg2d_last_res =   2.50163320104052E-08
(PID.TID 0000.0001) // =======================================================
(PID.TID 0000.0001) // Begin MONITOR dynamic field statistics
(PID.TID 0000.0001) // =======================================================
(PID.TID 0000.0001) %MON time_tsnumber                =                    39
(PID.TID 0000.0001) %MON time_secondsf                =   3.5100000000000E+04
(PID.TID 0000.0001) %MON dynstat_eta_max              =   2.4904437313681E+00
(PID.TID 0000.0001) %MON dynstat_eta_min              =  -8.3722603391675E-01
(PID.TID 0000.0001) %MON dynstat_eta_mean             =   2.9238347927988E-02
(PID.TID 0000.0001) %MON dynstat_eta_sd               =   9.9032234963478E-02
(PID.TID 0000.0001) %MON dynstat_eta_del2             =   1.8850456161299E-03
(PID.TID 0000.0001) %MON dynstat_uvel_max             =   4.3611819280173E-01
(PID.TID 0000.0001) %MON dynstat_uvel_min             =  -1.0105556909224E+00
(PID.TID 0000.0001) %MON dynstat_uvel_mean            =  -6.5630925087530E-05
(PID.TID 0000.0001) %MON dynstat_uvel_sd              =   6.3099978592853E-03
(PID.TID 0000.0001) %MON dynstat_uvel_del2            =   7.3847689522636E-05
(PID.TID 0000.0001) %MON dynstat_vvel_max             =   1.1190908606831E+00
(PID.TID 0000.0001) %MON dynstat_vvel_min             =  -9.6545324883625E-01
(PID.TID 0000.0001) %MON dynstat_vvel_mean            =   1.1410455953387E-04
(PID.TID 0000.0001) %MON dynstat_vvel_sd              =   6.8750706602418E-03
(PID.TID 0000.0001) %MON dynstat_vvel_del2            =   1.1345790249177E-04
(PID.TID 0000.0001) %MON dynstat_wvel_max             =   2.1524150190628E-04
(PID.TID 0000.0001) %MON dynstat_wvel_min             =  -2.3255808207904E-04
(PID.TID 0000.0001) %MON dynstat_wvel_mean            =  -1.1085363769405E-09
(PID.TID 0000.0001) %MON dynstat_wvel_sd              =   7.6070600031222E-06
(PID.TID 0000.0001) %MON dynstat_wvel_del2            =   7.5495449968885E-08
(PID.TID 0000.0001) %MON dynstat_theta_max            =   2.1197764228564E+01
(PID.TID 0000.0001) %MON dynstat_theta_min            =   1.6161344455680E+01
(PID.TID 0000.0001) %MON dynstat_theta_mean           =   1.9997889402702E+01
(PID.TID 0000.0001) %MON dynstat_theta_sd             =   2.1849881003659E-02
(PID.TID 0000.0001) %MON dynstat_theta_del2           =   3.2567048443856E-04
(PID.TID 0000.0001) %MON dynstat_salt_max             =   3.5078459120332E+01
(PID.TID 0000.0001) %MON dynstat_salt_min             =   3.0523826132170E+01
(PID.TID 0000.0001) %MON dynstat_salt_mean            =   3.4999711683779E+01
(PID.TID 0000.0001) %MON dynstat_salt_sd              =   2.1853692738017E-02
(PID.TID 0000.0001) %MON dynstat_salt_del2            =   5.8394227649255E-04
(PID.TID 0000.0001) %MON dynstat_sst_max              =   2.1197764228564E+01
(PID.TID 0000.0001) %MON dynstat_sst_min              =   1.6161344455680E+01
(PID.TID 0000.0001) %MON dynstat_sst_mean             =   2.0035667991263E+01
(PID.TID 0000.0001) %MON dynstat_sst_sd               =   1.5743486346931E-01
(PID.TID 0000.0001) %MON dynstat_sst_del2             =   3.7472862133408E-03
(PID.TID 0000.0001) %MON dynstat_sss_max              =   3.5078459120332E+01
(PID.TID 0000.0001) %MON dynstat_sss_min              =   3.0523826132170E+01
(PID.TID 0000.0001) %MON dynstat_sss_mean             =   3.4986045565820E+01
(PID.TID 0000.0001) %MON dynstat_sss_sd               =   1.8658731313912E-01
(PID.TID 0000.0001) %MON dynstat_sss_del2             =   7.3330768513265E-03
(PID.TID 0000.0001) %MON forcing_qnet_max             =   4.4760412926570E+03
(PID.TID 0000.0001) %MON forcing_qnet_min             =  -5.3753844557372E+03
(PID.TID 0000.0001) %MON forcing_qnet_mean            =  -3.5126911087785E+01
(PID.TID 0000.0001) %MON forcing_qnet_sd              =   5.8133940510024E+02
(PID.TID 0000.0001) %MON forcing_qnet_del2            =   9.5415345382141E+00
(PID.TID 0000.0001) %MON forcing_qsw_max              =   0.0000000000000E+00
(PID.TID 0000.0001) %MON forcing_qsw_min              =  -1.0823383779479E+02
(PID.TID 0000.0001) %MON forcing_qsw_mean             =  -1.4354078536946E+01
(PID.TID 0000.0001) %MON forcing_qsw_sd               =   2.5588177244944E+01
(PID.TID 0000.0001) %MON forcing_qsw_del2             =   1.6239340175337E-01
(PID.TID 0000.0001) %MON forcing_empmr_max            =   7.4835051782429E-03
(PID.TID 0000.0001) %MON forcing_empmr_min            =  -1.0756921023130E-01
(PID.TID 0000.0001) %MON forcing_empmr_mean           =  -4.6560607973053E-04
(PID.TID 0000.0001) %MON forcing_empmr_sd             =   4.7544622315126E-03
(PID.TID 0000.0001) %MON forcing_empmr_del2           =   1.8766667462988E-04
(PID.TID 0000.0001) %MON forcing_fu_max               =   6.9002556244717E-01
(PID.TID 0000.0001) %MON forcing_fu_min               =  -5.6803003353397E-01
(PID.TID 0000.0001) %MON forcing_fu_mean              =  -7.2321181069371E-04
(PID.TID 0000.0001) %MON forcing_fu_sd                =   9.0437510943637E-02
(PID.TID 0000.0001) %MON forcing_fu_del2              =   7.6034955498366E-04
(PID.TID 0000.0001) %MON forcing_fv_max               =   4.7938391586708E-01
(PID.TID 0000.0001) %MON forcing_fv_min               =  -4.1330645856228E-01
(PID.TID 0000.0001) %MON forcing_fv_mean              =  -4.3521442661803E-03
(PID.TID 0000.0001) %MON forcing_fv_sd                =   7.9996705341828E-02
(PID.TID 0000.0001) %MON forcing_fv_del2              =   6.6920843837943E-04
(PID.TID 0000.0001) %MON trAdv_CFL_u_max              =   3.4398311807618E-03
(PID.TID 0000.0001) %MON trAdv_CFL_v_max              =   4.2366616286382E-03
(PID.TID 0000.0001) %MON trAdv_CFL_w_max              =   2.1627988768578E-03
(PID.TID 0000.0001) %MON advcfl_uvel_max              =   3.3699673988473E-03
(PID.TID 0000.0001) %MON advcfl_vvel_max              =   3.3536572581063E-03
(PID.TID 0000.0001) %MON advcfl_wvel_max              =   3.7415377471758E-03
(PID.TID 0000.0001) %MON advcfl_W_hf_max              =   2.6526772715784E-03
(PID.TID 0000.0001) %MON pe_b_mean                    =   1.4203995494480E-05
(PID.TID 0000.0001) %MON ke_max                       =   4.8591105660710E-01
(PID.TID 0000.0001) %MON ke_mean                      =   4.0229757333906E-05
(PID.TID 0000.0001) %MON ke_vol                       =   1.3398129374812E+18
(PID.TID 0000.0001) %MON vort_r_min                   =  -3.9262494565236E-06
(PID.TID 0000.0001) %MON vort_r_max                   =   4.2283698671849E-06
(PID.TID 0000.0001) %MON vort_a_mean                  =  -2.0549865324846E-05
(PID.TID 0000.0001) %MON vort_a_sd                    =   7.5259265005122E-05
(PID.TID 0000.0001) %MON vort_p_mean                  =  -2.4783331896530E-05
(PID.TID 0000.0001) %MON vort_p_sd                    =   1.2810553051638E-04
(PID.TID 0000.0001) %MON surfExpan_theta_mean         =  -6.6877771748922E-07
(PID.TID 0000.0001) %MON surfExpan_salt_mean          =   8.2755450045133E-07
(PID.TID 0000.0001) // =======================================================
(PID.TID 0000.0001) // End MONITOR dynamic field statistics
(PID.TID 0000.0001) // =======================================================
(PID.TID 0000.0001) // =======================================================
(PID.TID 0000.0001) // Begin MONITOR SEAICE statistics
(PID.TID 0000.0001) // =======================================================
(PID.TID 0000.0001) %MON seaice_tsnumber              =                    39
(PID.TID 0000.0001) %MON seaice_time_sec              =   3.5100000000000E+04
(PID.TID 0000.0001) %MON seaice_uice_max              =   2.4637170461954E-01
(PID.TID 0000.0001) %MON seaice_uice_min              =  -1.0195966925681E+00
(PID.TID 0000.0001) %MON seaice_uice_mean             =  -5.3669331532013E-03
(PID.TID 0000.0001) %MON seaice_uice_sd               =   4.5325834944570E-02
(PID.TID 0000.0001) %MON seaice_uice_del2             =   8.4058600632713E-04
(PID.TID 0000.0001) %MON seaice_vice_max              =   1.1058723893353E+00
(PID.TID 0000.0001) %MON seaice_vice_min              =  -1.0053629303296E+00
(PID.TID 0000.0001) %MON seaice_vice_mean             =  -7.5341544263439E-03
(PID.TID 0000.0001) %MON seaice_vice_sd               =   5.3772955937602E-02
(PID.TID 0000.0001) %MON seaice_vice_del2             =   1.3054207823820E-03
(PID.TID 0000.0001) %MON seaice_area_max              =   9.9399547103324E-01
(PID.TID 0000.0001) %MON seaice_area_min              =   0.0000000000000E+00
(PID.TID 0000.0001) %MON seaice_area_mean             =   6.5114844117847E-02
(PID.TID 0000.0001) %MON seaice_area_sd               =   2.2621288149663E-01
(PID.TID 0000.0001) %MON seaice_area_del2             =   1.6260398614504E-03
(PID.TID 0000.0001) %MON seaice_heff_max              =   8.3359409310660E+00
(PID.TID 0000.0001) %MON seaice_heff_min              =   0.0000000000000E+00
(PID.TID 0000.0001) %MON seaice_heff_mean             =   1.9901563237886E-01
(PID.TID 0000.0001) %MON seaice_heff_sd               =   9.5824635222407E-01
(PID.TID 0000.0001) %MON seaice_heff_del2             =   6.1675888307078E-03
(PID.TID 0000.0001) %MON seaice_hsnow_max             =   2.0044685457383E+00
(PID.TID 0000.0001) %MON seaice_hsnow_min             =   0.0000000000000E+00
(PID.TID 0000.0001) %MON seaice_hsnow_mean            =   2.2093825885796E-02
(PID.TID 0000.0001) %MON seaice_hsnow_sd              =   1.1735108935769E-01
(PID.TID 0000.0001) %MON seaice_hsnow_del2            =   1.4393477376518E-03
(PID.TID 0000.0001) // =======================================================
(PID.TID 0000.0001) // End MONITOR SEAICE statistics
(PID.TID 0000.0001) // =======================================================
 SEAICE_LSR: Residual Initial ipass,Uice,Vice=    1  2.80079363E-03  2.56342896E-03
 SEAICE_LSR (ipass=   1) iters,dU,Resid=     4  7.85492384E-05  5.45502649E-05
 SEAICE_LSR (ipass=   1) iters,dV,Resid=     4  4.49011703E-05  2.03946359E-05
 SEAICE_LSR: Residual Initial ipass,Uice,Vice=    2  1.85760761E-03  1.73723680E-03
 SEAICE_LSR (ipass=   2) iters,dU,Resid=     4  5.76979564E-05  4.04880646E-05
 SEAICE_LSR (ipass=   2) iters,dV,Resid=     4  2.49518770E-05  1.39438050E-05
 cg2d: Sum(rhs),rhsMax =  -4.37571976234109E+01  5.82981334804842E+01
(PID.TID 0000.0001)      cg2d_init_res =   2.75549315782299E-01
(PID.TID 0000.0001)      cg2d_iters(min,last) =      -1      11
(PID.TID 0000.0001)      cg2d_last_res =   2.35054545301933E-08
(PID.TID 0000.0001) // =======================================================
(PID.TID 0000.0001) // Begin MONITOR dynamic field statistics
(PID.TID 0000.0001) // =======================================================
(PID.TID 0000.0001) %MON time_tsnumber                =                    40
(PID.TID 0000.0001) %MON time_secondsf                =   3.6000000000000E+04
(PID.TID 0000.0001) %MON dynstat_eta_max              =   2.6007770781380E+00
(PID.TID 0000.0001) %MON dynstat_eta_min              =  -8.7793364861611E-01
(PID.TID 0000.0001) %MON dynstat_eta_mean             =   2.9641851270334E-02
(PID.TID 0000.0001) %MON dynstat_eta_sd               =   9.9761107802384E-02
(PID.TID 0000.0001) %MON dynstat_eta_del2             =   1.9211134755328E-03
(PID.TID 0000.0001) %MON dynstat_uvel_max             =   4.4365340738628E-01
(PID.TID 0000.0001) %MON dynstat_uvel_min             =  -9.7494111705311E-01
(PID.TID 0000.0001) %MON dynstat_uvel_mean            =  -8.9224015773611E-05
(PID.TID 0000.0001) %MON dynstat_uvel_sd              =   6.2930920666079E-03
(PID.TID 0000.0001) %MON dynstat_uvel_del2            =   7.3649977604774E-05
(PID.TID 0000.0001) %MON dynstat_vvel_max             =   1.0740621797565E+00
(PID.TID 0000.0001) %MON dynstat_vvel_min             =  -8.7162349951499E-01
(PID.TID 0000.0001) %MON dynstat_vvel_mean            =   1.5469011240741E-04
(PID.TID 0000.0001) %MON dynstat_vvel_sd              =   6.7042055632014E-03
(PID.TID 0000.0001) %MON dynstat_vvel_del2            =   1.1012658926885E-04
(PID.TID 0000.0001) %MON dynstat_wvel_max             =   2.1266205161941E-04
(PID.TID 0000.0001) %MON dynstat_wvel_min             =  -2.2764111406509E-04
(PID.TID 0000.0001) %MON dynstat_wvel_mean            =  -1.4250232220610E-08
(PID.TID 0000.0001) %MON dynstat_wvel_sd              =   7.5568086527780E-06
(PID.TID 0000.0001) %MON dynstat_wvel_del2            =   7.5686854598901E-08
(PID.TID 0000.0001) %MON dynstat_theta_max            =   2.1221951928687E+01
(PID.TID 0000.0001) %MON dynstat_theta_min            =   1.6168069559224E+01
(PID.TID 0000.0001) %MON dynstat_theta_mean           =   1.9997891303449E+01
(PID.TID 0000.0001) %MON dynstat_theta_sd             =   2.1985810947963E-02
(PID.TID 0000.0001) %MON dynstat_theta_del2           =   3.2702749367980E-04
(PID.TID 0000.0001) %MON dynstat_salt_max             =   3.5078458866296E+01
(PID.TID 0000.0001) %MON dynstat_salt_min             =   3.0454316241886E+01
(PID.TID 0000.0001) %MON dynstat_salt_mean            =   3.4999707547284E+01
(PID.TID 0000.0001) %MON dynstat_salt_sd              =   2.2196481097699E-02
(PID.TID 0000.0001) %MON dynstat_salt_del2            =   5.9296462241540E-04
(PID.TID 0000.0001) %MON dynstat_sst_max              =   2.1221951928687E+01
(PID.TID 0000.0001) %MON dynstat_sst_min              =   1.6168069559224E+01
(PID.TID 0000.0001) %MON dynstat_sst_mean             =   2.0036655393244E+01
(PID.TID 0000.0001) %MON dynstat_sst_sd               =   1.5845408042271E-01
(PID.TID 0000.0001) %MON dynstat_sst_del2             =   3.7652597075690E-03
(PID.TID 0000.0001) %MON dynstat_sss_max              =   3.5078458866296E+01
(PID.TID 0000.0001) %MON dynstat_sss_min              =   3.0454316241886E+01
(PID.TID 0000.0001) %MON dynstat_sss_mean             =   3.4985804317507E+01
(PID.TID 0000.0001) %MON dynstat_sss_sd               =   1.8952074911960E-01
(PID.TID 0000.0001) %MON dynstat_sss_del2             =   7.4464199280844E-03
(PID.TID 0000.0001) %MON forcing_qnet_max             =   4.4188876572464E+03
(PID.TID 0000.0001) %MON forcing_qnet_min             =  -5.3088432641913E+03
(PID.TID 0000.0001) %MON forcing_qnet_mean            =  -3.1813672975126E+01
(PID.TID 0000.0001) %MON forcing_qnet_sd              =   5.7488413890999E+02
(PID.TID 0000.0001) %MON forcing_qnet_del2            =   8.9700159761753E+00
(PID.TID 0000.0001) %MON forcing_qsw_max              =   0.0000000000000E+00
(PID.TID 0000.0001) %MON forcing_qsw_min              =  -1.0759069803031E+02
(PID.TID 0000.0001) %MON forcing_qsw_mean             =  -1.4157402607834E+01
(PID.TID 0000.0001) %MON forcing_qsw_sd               =   2.5562324351221E+01
(PID.TID 0000.0001) %MON forcing_qsw_del2             =   1.5863964327511E-01
(PID.TID 0000.0001) %MON forcing_empmr_max            =   7.4063567444682E-03
(PID.TID 0000.0001) %MON forcing_empmr_min            =  -1.0646077990532E-01
(PID.TID 0000.0001) %MON forcing_empmr_mean           =  -4.6402884369801E-04
(PID.TID 0000.0001) %MON forcing_empmr_sd             =   4.7059418344651E-03
(PID.TID 0000.0001) %MON forcing_empmr_del2           =   1.8573076049022E-04
(PID.TID 0000.0001) %MON forcing_fu_max               =   6.8643130155855E-01
(PID.TID 0000.0001) %MON forcing_fu_min               =  -5.6801997857985E-01
(PID.TID 0000.0001) %MON forcing_fu_mean              =  -8.4363044939907E-04
(PID.TID 0000.0001) %MON forcing_fu_sd                =   9.0146535426159E-02
(PID.TID 0000.0001) %MON forcing_fu_del2              =   7.5983638977955E-04
(PID.TID 0000.0001) %MON forcing_fv_max               =   4.7635618501669E-01
(PID.TID 0000.0001) %MON forcing_fv_min               =  -4.1346943539037E-01
(PID.TID 0000.0001) %MON forcing_fv_mean              =  -4.5329610144029E-03
(PID.TID 0000.0001) %MON forcing_fv_sd                =   7.9940969559742E-02
(PID.TID 0000.0001) %MON forcing_fv_del2              =   6.6831884080151E-04
(PID.TID 0000.0001) %MON trAdv_CFL_u_max              =   3.3300922112290E-03
(PID.TID 0000.0001) %MON trAdv_CFL_v_max              =   3.8732259079343E-03
(PID.TID 0000.0001) %MON trAdv_CFL_w_max              =   2.2385545508709E-03
(PID.TID 0000.0001) %MON advcfl_uvel_max              =   3.2512011062603E-03
(PID.TID 0000.0001) %MON advcfl_vvel_max              =   3.2187166845410E-03
(PID.TID 0000.0001) %MON advcfl_wvel_max              =   3.7029836488807E-03
(PID.TID 0000.0001) %MON advcfl_W_hf_max              =   2.6208657866861E-03
(PID.TID 0000.0001) %MON pe_b_mean                    =   1.4428669677372E-05
(PID.TID 0000.0001) %MON ke_max                       =   4.2285347417529E-01
(PID.TID 0000.0001) %MON ke_mean                      =   3.9062077249188E-05
(PID.TID 0000.0001) %MON ke_vol                       =   1.3398130848098E+18
(PID.TID 0000.0001) %MON vort_r_min                   =  -3.5606257392456E-06
(PID.TID 0000.0001) %MON vort_r_max                   =   4.3560068674910E-06
(PID.TID 0000.0001) %MON vort_a_mean                  =  -2.0549865324846E-05
(PID.TID 0000.0001) %MON vort_a_sd                    =   7.5259276441372E-05
(PID.TID 0000.0001) %MON vort_p_mean                  =  -2.4783329686800E-05
(PID.TID 0000.0001) %MON vort_p_sd                    =   1.2810555073735E-04
(PID.TID 0000.0001) %MON surfExpan_theta_mean         =  -6.1775346467356E-07
(PID.TID 0000.0001) %MON surfExpan_salt_mean          =   8.2519874067822E-07
(PID.TID 0000.0001) // =======================================================
(PID.TID 0000.0001) // End MONITOR dynamic field statistics
(PID.TID 0000.0001) // =======================================================
(PID.TID 0000.0001) // =======================================================
(PID.TID 0000.0001) // Begin MONITOR SEAICE statistics
(PID.TID 0000.0001) // =======================================================
(PID.TID 0000.0001) %MON seaice_tsnumber              =                    40
(PID.TID 0000.0001) %MON seaice_time_sec              =   3.6000000000000E+04
(PID.TID 0000.0001) %MON seaice_uice_max              =   2.4526681944342E-01
(PID.TID 0000.0001) %MON seaice_uice_min              =  -1.0043912387381E+00
(PID.TID 0000.0001) %MON seaice_uice_mean             =  -5.5298254842607E-03
(PID.TID 0000.0001) %MON seaice_uice_sd               =   4.5141355818924E-02
(PID.TID 0000.0001) %MON seaice_uice_del2             =   8.3956398117541E-04
(PID.TID 0000.0001) %MON seaice_vice_max              =   1.0745428912572E+00
(PID.TID 0000.0001) %MON seaice_vice_min              =  -9.2253357628434E-01
(PID.TID 0000.0001) %MON seaice_vice_mean             =  -7.7017793580269E-03
(PID.TID 0000.0001) %MON seaice_vice_sd               =   5.2589103204848E-02
(PID.TID 0000.0001) %MON seaice_vice_del2             =   1.2668003467327E-03
(PID.TID 0000.0001) %MON seaice_area_max              =   9.9372850041581E-01
(PID.TID 0000.0001) %MON seaice_area_min              =   0.0000000000000E+00
(PID.TID 0000.0001) %MON seaice_area_mean             =   6.5021329571648E-02
(PID.TID 0000.0001) %MON seaice_area_sd               =   2.2595895456837E-01
(PID.TID 0000.0001) %MON seaice_area_del2             =   1.6214437253574E-03
(PID.TID 0000.0001) %MON seaice_heff_max              =   8.3333333616603E+00
(PID.TID 0000.0001) %MON seaice_heff_min              =   0.0000000000000E+00
(PID.TID 0000.0001) %MON seaice_heff_mean             =   1.9884140613165E-01
(PID.TID 0000.0001) %MON seaice_heff_sd               =   9.5775888845417E-01
(PID.TID 0000.0001) %MON seaice_heff_del2             =   6.1659578519870E-03
(PID.TID 0000.0001) %MON seaice_hsnow_max             =   2.0037624746111E+00
(PID.TID 0000.0001) %MON seaice_hsnow_min             =   0.0000000000000E+00
(PID.TID 0000.0001) %MON seaice_hsnow_mean            =   2.2075408638437E-02
(PID.TID 0000.0001) %MON seaice_hsnow_sd              =   1.1729169352505E-01
(PID.TID 0000.0001) %MON seaice_hsnow_del2            =   1.4386776485968E-03
(PID.TID 0000.0001) // =======================================================
(PID.TID 0000.0001) // End MONITOR SEAICE statistics
(PID.TID 0000.0001) // =======================================================
 Compute Stats, Diag. #    211  SIarea    vol(   0 ): 1.456E+15  Parms: SM      M1      
 Compute Stats, Diag. #    214  SIheff    vol(   0 ): 1.456E+15  Parms: SM      M1      
 Compute Stats, Diag. #    216  SIhsnow   vol(   0 ): 1.456E+15  Parms: SM      M1      
 Compute Stats, Diag. #     83  sIceLoad  vol(   0 ): 1.456E+15  Parms: SM      U1      
 Compute Stats, Diag. #    220  SIuice    vol(   0 ): 1.383E+15  Parms: UU      M1      
 Compute Stats, Diag. #    221  SIvice    vol(   0 ): 1.391E+15  Parms: VV      M1      
 Compute Stats, Diag. #    222  SItaux    vol(   0 ): 1.383E+15  Parms: UU      U1      
 Compute Stats, Diag. #    223  SItauy    vol(   0 ): 1.391E+15  Parms: VV      U1      
 Compute Stats, Diag. #    282  SIareaN   vol(   0 ): 7.278E+15  Parms: SM      MX      
 Compute Stats, Diag. #    281  SIheffN   vol(   0 ): 7.278E+15  Parms: SM      MX      
 Compute Stats, Diag. #    283  SIhsnowN  vol(   0 ): 7.278E+15  Parms: SM      MX      
 Compute Stats, Diag. #    287  SIqSnow   vol(   0 ): 7.278E+15  Parms: SM      MX      
 Compute Stats, Diag. #    286  SIqIce    vol(   0 ): 2.911E+16  Parms: SM      MX      
 Compute Stats, Diag. #    288  SImeltPd  vol(   0 ): 7.278E+15  Parms: SM      MX      
 Compute Stats, Diag. #    285  SItIces   vol(   0 ): 7.278E+15  Parms: SM      MX      
 Compute Stats, Diag. #    289  SIiceAge  vol(   0 ): 7.278E+15  Parms: SM      MX      
 Compute Stats, Diag. #    290  SI_dArea  vol(   0 ): 7.278E+15  Parms: SM      MX      
 Compute Stats, Diag. #    291  SI_dHeff  vol(   0 ): 7.278E+15  Parms: SM      MX      
 Compute Stats, Diag. #    292  SI_dHsnw  vol(   0 ): 7.278E+15  Parms: SM      MX      
 Compute Stats, Diag. #    295  SI_dQSnw  vol(   0 ): 7.278E+15  Parms: SM      MX      
 Compute Stats, Diag. #    294  SI_dQIce  vol(   0 ): 2.911E+16  Parms: SM      MX      
 SEAICE_LSR: Residual Initial ipass,Uice,Vice=    1  2.62610809E-03  2.57642243E-03
 SEAICE_LSR (ipass=   1) iters,dU,Resid=     6  3.50926123E-05  2.77781901E-05
 SEAICE_LSR (ipass=   1) iters,dV,Resid=     6  4.30255705E-06  6.17237638E-06
 SEAICE_LSR: Residual Initial ipass,Uice,Vice=    2  1.69527044E-03  1.69468059E-03
 SEAICE_LSR (ipass=   2) iters,dU,Resid=     4  7.35227496E-05  4.80467319E-05
 SEAICE_LSR (ipass=   2) iters,dV,Resid=     4  2.00788921E-05  1.57282777E-05
 cg2d: Sum(rhs),rhsMax =  -4.26967815725738E+01  6.05503857037086E+01
(PID.TID 0000.0001)      cg2d_init_res =   2.56560089793277E-01
(PID.TID 0000.0001)      cg2d_iters(min,last) =      -1      10
(PID.TID 0000.0001)      cg2d_last_res =   9.38952061278576E-08
(PID.TID 0000.0001) // =======================================================
(PID.TID 0000.0001) // Begin MONITOR dynamic field statistics
(PID.TID 0000.0001) // =======================================================
(PID.TID 0000.0001) %MON time_tsnumber                =                    41
(PID.TID 0000.0001) %MON time_secondsf                =   3.6900000000000E+04
(PID.TID 0000.0001) %MON dynstat_eta_max              =   2.7005826984352E+00
(PID.TID 0000.0001) %MON dynstat_eta_min              =  -9.0838592580701E-01
(PID.TID 0000.0001) %MON dynstat_eta_mean             =   3.0040919869308E-02
(PID.TID 0000.0001) %MON dynstat_eta_sd               =   1.0092938715794E-01
(PID.TID 0000.0001) %MON dynstat_eta_del2             =   1.9795366431632E-03
(PID.TID 0000.0001) %MON dynstat_uvel_max             =   4.4939268064099E-01
(PID.TID 0000.0001) %MON dynstat_uvel_min             =  -9.2310124757543E-01
(PID.TID 0000.0001) %MON dynstat_uvel_mean            =  -1.0976816365270E-04
(PID.TID 0000.0001) %MON dynstat_uvel_sd              =   6.2526038475033E-03
(PID.TID 0000.0001) %MON dynstat_uvel_del2            =   7.3460054410014E-05
(PID.TID 0000.0001) %MON dynstat_vvel_max             =   1.0185403642667E+00
(PID.TID 0000.0001) %MON dynstat_vvel_min             =  -7.6742207856238E-01
(PID.TID 0000.0001) %MON dynstat_vvel_mean            =   1.9792229426179E-04
(PID.TID 0000.0001) %MON dynstat_vvel_sd              =   6.5330936247925E-03
(PID.TID 0000.0001) %MON dynstat_vvel_del2            =   1.0631550272321E-04
(PID.TID 0000.0001) %MON dynstat_wvel_max             =   2.0944543887252E-04
(PID.TID 0000.0001) %MON dynstat_wvel_min             =  -2.2567594471209E-04
(PID.TID 0000.0001) %MON dynstat_wvel_mean            =  -3.2245448734519E-08
(PID.TID 0000.0001) %MON dynstat_wvel_sd              =   7.5031383926315E-06
(PID.TID 0000.0001) %MON dynstat_wvel_del2            =   7.5928006660394E-08
(PID.TID 0000.0001) %MON dynstat_theta_max            =   2.1245850188768E+01
(PID.TID 0000.0001) %MON dynstat_theta_min            =   1.6174211777822E+01
(PID.TID 0000.0001) %MON dynstat_theta_mean           =   1.9997893053577E+01
(PID.TID 0000.0001) %MON dynstat_theta_sd             =   2.2120739291045E-02
(PID.TID 0000.0001) %MON dynstat_theta_del2           =   3.2845189722573E-04
(PID.TID 0000.0001) %MON dynstat_salt_max             =   3.5078458514402E+01
(PID.TID 0000.0001) %MON dynstat_salt_min             =   3.0386361307446E+01
(PID.TID 0000.0001) %MON dynstat_salt_mean            =   3.4999703479853E+01
(PID.TID 0000.0001) %MON dynstat_salt_sd              =   2.2531825091275E-02
(PID.TID 0000.0001) %MON dynstat_salt_del2            =   6.0178045891457E-04
(PID.TID 0000.0001) %MON dynstat_sst_max              =   2.1245850188768E+01
(PID.TID 0000.0001) %MON dynstat_sst_min              =   1.6174211777822E+01
(PID.TID 0000.0001) %MON dynstat_sst_mean             =   2.0037606147814E+01
(PID.TID 0000.0001) %MON dynstat_sst_sd               =   1.5947015318929E-01
(PID.TID 0000.0001) %MON dynstat_sst_del2             =   3.7838623208496E-03
(PID.TID 0000.0001) %MON dynstat_sss_max              =   3.5078458514402E+01
(PID.TID 0000.0001) %MON dynstat_sss_min              =   3.0386361307446E+01
(PID.TID 0000.0001) %MON dynstat_sss_mean             =   3.4985561901788E+01
(PID.TID 0000.0001) %MON dynstat_sss_sd               =   1.9238831843444E-01
(PID.TID 0000.0001) %MON dynstat_sss_del2             =   7.5571565157944E-03
(PID.TID 0000.0001) %MON forcing_qnet_max             =   4.3641303744809E+03
(PID.TID 0000.0001) %MON forcing_qnet_min             =  -5.2427226612880E+03
(PID.TID 0000.0001) %MON forcing_qnet_mean            =  -2.9290913831517E+01
(PID.TID 0000.0001) %MON forcing_qnet_sd              =   5.6922566567021E+02
(PID.TID 0000.0001) %MON forcing_qnet_del2            =   8.8389697708226E+00
(PID.TID 0000.0001) %MON forcing_qsw_max              =   0.0000000000000E+00
(PID.TID 0000.0001) %MON forcing_qsw_min              =  -1.0623838939433E+02
(PID.TID 0000.0001) %MON forcing_qsw_mean             =  -1.3885874035256E+01
(PID.TID 0000.0001) %MON forcing_qsw_sd               =   2.5557815813079E+01
(PID.TID 0000.0001) %MON forcing_qsw_del2             =   1.5066791265696E-01
(PID.TID 0000.0001) %MON forcing_empmr_max            =   7.3299957439303E-03
(PID.TID 0000.0001) %MON forcing_empmr_min            =  -1.0536408424377E-01
(PID.TID 0000.0001) %MON forcing_empmr_mean           =  -4.5892888882053E-04
(PID.TID 0000.0001) %MON forcing_empmr_sd             =   4.6582967483749E-03
(PID.TID 0000.0001) %MON forcing_empmr_del2           =   1.8381976372556E-04
(PID.TID 0000.0001) %MON forcing_fu_max               =   6.8161313382218E-01
(PID.TID 0000.0001) %MON forcing_fu_min               =  -5.6209422382660E-01
(PID.TID 0000.0001) %MON forcing_fu_mean              =  -9.2507932381566E-04
(PID.TID 0000.0001) %MON forcing_fu_sd                =   8.9956080385282E-02
(PID.TID 0000.0001) %MON forcing_fu_del2              =   7.5961429457806E-04
(PID.TID 0000.0001) %MON forcing_fv_max               =   4.7402376498871E-01
(PID.TID 0000.0001) %MON forcing_fv_min               =  -4.0851007483685E-01
(PID.TID 0000.0001) %MON forcing_fv_mean              =  -4.6794830613552E-03
(PID.TID 0000.0001) %MON forcing_fv_sd                =   7.9857552707388E-02
(PID.TID 0000.0001) %MON forcing_fv_del2              =   6.6644916399431E-04
(PID.TID 0000.0001) %MON trAdv_CFL_u_max              =   3.1632888565944E-03
(PID.TID 0000.0001) %MON trAdv_CFL_v_max              =   3.4744922868116E-03
(PID.TID 0000.0001) %MON trAdv_CFL_w_max              =   2.2970855942859E-03
(PID.TID 0000.0001) %MON advcfl_uvel_max              =   3.0783272392686E-03
(PID.TID 0000.0001) %MON advcfl_vvel_max              =   3.0523306063034E-03
(PID.TID 0000.0001) %MON advcfl_wvel_max              =   3.6648377128269E-03
(PID.TID 0000.0001) %MON advcfl_W_hf_max              =   2.5731558216813E-03
(PID.TID 0000.0001) %MON pe_b_mean                    =   1.4772742124471E-05
(PID.TID 0000.0001) %MON ke_max                       =   3.5408866741612E-01
(PID.TID 0000.0001) %MON ke_mean                      =   3.7786740559448E-05
(PID.TID 0000.0001) %MON ke_vol                       =   1.3398132316393E+18
(PID.TID 0000.0001) %MON vort_r_min                   =  -3.1695134299430E-06
(PID.TID 0000.0001) %MON vort_r_max                   =   4.3849668323683E-06
(PID.TID 0000.0001) %MON vort_a_mean                  =  -2.0549865324846E-05
(PID.TID 0000.0001) %MON vort_a_sd                    =   7.5259288521285E-05
(PID.TID 0000.0001) %MON vort_p_mean                  =  -2.4783327461022E-05
(PID.TID 0000.0001) %MON vort_p_sd                    =   1.2810556207216E-04
(PID.TID 0000.0001) %MON surfExpan_theta_mean         =  -5.6187837427069E-07
(PID.TID 0000.0001) %MON surfExpan_salt_mean          =   8.2226341625075E-07
(PID.TID 0000.0001) // =======================================================
(PID.TID 0000.0001) // End MONITOR dynamic field statistics
(PID.TID 0000.0001) // =======================================================
(PID.TID 0000.0001) // =======================================================
(PID.TID 0000.0001) // Begin MONITOR SEAICE statistics
(PID.TID 0000.0001) // =======================================================
(PID.TID 0000.0001) %MON seaice_tsnumber              =                    41
(PID.TID 0000.0001) %MON seaice_time_sec              =   3.6900000000000E+04
(PID.TID 0000.0001) %MON seaice_uice_max              =   2.4433664690435E-01
(PID.TID 0000.0001) %MON seaice_uice_min              =  -9.7088338741306E-01
(PID.TID 0000.0001) %MON seaice_uice_mean             =  -5.6538603381380E-03
(PID.TID 0000.0001) %MON seaice_uice_sd               =   4.4817143197963E-02
(PID.TID 0000.0001) %MON seaice_uice_del2             =   8.3696683562788E-04
(PID.TID 0000.0001) %MON seaice_vice_max              =   1.0310015599371E+00
(PID.TID 0000.0001) %MON seaice_vice_min              =  -8.2719539919449E-01
(PID.TID 0000.0001) %MON seaice_vice_mean             =  -7.8647392472111E-03
(PID.TID 0000.0001) %MON seaice_vice_sd               =   5.1303902199204E-02
(PID.TID 0000.0001) %MON seaice_vice_del2             =   1.2212216152016E-03
(PID.TID 0000.0001) %MON seaice_area_max              =   9.9345653076939E-01
(PID.TID 0000.0001) %MON seaice_area_min              =   0.0000000000000E+00
(PID.TID 0000.0001) %MON seaice_area_mean             =   6.4927522833626E-02
(PID.TID 0000.0001) %MON seaice_area_sd               =   2.2570499535572E-01
(PID.TID 0000.0001) %MON seaice_area_del2             =   1.6167825904207E-03
(PID.TID 0000.0001) %MON seaice_heff_max              =   8.3307256617415E+00
(PID.TID 0000.0001) %MON seaice_heff_min              =   0.0000000000000E+00
(PID.TID 0000.0001) %MON seaice_heff_mean             =   1.9866731497126E-01
(PID.TID 0000.0001) %MON seaice_heff_sd               =   9.5727118138589E-01
(PID.TID 0000.0001) %MON seaice_heff_del2             =   6.1643198758169E-03
(PID.TID 0000.0001) %MON seaice_hsnow_max             =   2.0030535471150E+00
(PID.TID 0000.0001) %MON seaice_hsnow_min             =   0.0000000000000E+00
(PID.TID 0000.0001) %MON seaice_hsnow_mean            =   2.2056815096564E-02
(PID.TID 0000.0001) %MON seaice_hsnow_sd              =   1.1723208322921E-01
(PID.TID 0000.0001) %MON seaice_hsnow_del2            =   1.4379963816306E-03
(PID.TID 0000.0001) // =======================================================
(PID.TID 0000.0001) // End MONITOR SEAICE statistics
(PID.TID 0000.0001) // =======================================================
 Computing Diagnostic #    211  SIarea       Counter:       1   Parms: SM      M1      
 Computing Diagnostic #    214  SIheff       Counter:       1   Parms: SM      M1      
 Computing Diagnostic #    216  SIhsnow      Counter:       1   Parms: SM      M1      
 Computing Diagnostic #     83  sIceLoad     Counter:       1   Parms: SM      U1      
 Computing Diagnostic #    220  SIuice       Counter:       1   Parms: UU      M1      
           Vector  Mate for  SIuice       Diagnostic #    221  SIvice   exists 
 Computing Diagnostic #    221  SIvice       Counter:       1   Parms: VV      M1      
           Vector  Mate for  SIvice       Diagnostic #    220  SIuice   exists 
 Computing Diagnostic #    222  SItaux       Counter:       1   Parms: UU      U1      
           Vector  Mate for  SItaux       Diagnostic #    223  SItauy   exists 
 Computing Diagnostic #    223  SItauy       Counter:       1   Parms: VV      U1      
           Vector  Mate for  SItauy       Diagnostic #    222  SItaux   exists 
 Computing Diagnostic #    284  CPLoWGHT     Counter:       1   Parms: SM      M1      
 Computing Diagnostic #    282  SIareaN      Counter:       1   Parms: SM      MX      
 Computing Diagnostic #    281  SIheffN      Counter:       1   Parms: SM      MX      
 Computing Diagnostic #    283  SIhsnowN     Counter:       1   Parms: SM      MX      
 Computing Diagnostic #    287  SIqSnow      Counter:       1   Parms: SM      MX      
 Computing Diagnostic #    288  SImeltPd     Counter:       1   Parms: SM      MX      
 Computing Diagnostic #    285  SItIces      Counter:       1   Parms: SM      MX      
 Computing Diagnostic #    289  SIiceAge     Counter:       1   Parms: SM      MX      
 Computing Diagnostic #    290  SI_dArea     Counter:       1   Parms: SM      MX      
 Computing Diagnostic #    291  SI_dHeff     Counter:       1   Parms: SM      MX      
 Computing Diagnostic #    292  SI_dHsnw     Counter:       1   Parms: SM      MX      
 Computing Diagnostic #    295  SI_dQSnw     Counter:       1   Parms: SM      MX      
 Computing Diagnostic #    286  SIqIce       Counter:       1   Parms: SM      MX      
 Computing Diagnostic #    294  SI_dQIce     Counter:       1   Parms: SM      MX      
 SEAICE_LSR: Residual Initial ipass,Uice,Vice=    1  2.54225011E-03  2.59647080E-03
 SEAICE_LSR (ipass=   1) iters,dU,Resid=     6  5.02243511E-05  3.37129052E-05
 SEAICE_LSR (ipass=   1) iters,dV,Resid=     6  3.14388517E-06  7.94100940E-06
 SEAICE_LSR: Residual Initial ipass,Uice,Vice=    2  1.57049123E-03  1.66535192E-03
 SEAICE_LSR (ipass=   2) iters,dU,Resid=     4  9.88292918E-05  5.87009695E-05
 SEAICE_LSR (ipass=   2) iters,dV,Resid=     4  1.43452100E-05  1.80940633E-05
 cg2d: Sum(rhs),rhsMax =  -4.18864966927238E+01  6.25363047255865E+01
(PID.TID 0000.0001)      cg2d_init_res =   2.38232951217100E-01
(PID.TID 0000.0001)      cg2d_iters(min,last) =      -1      10
(PID.TID 0000.0001)      cg2d_last_res =   7.37732775035748E-08
(PID.TID 0000.0001) // =======================================================
(PID.TID 0000.0001) // Begin MONITOR dynamic field statistics
(PID.TID 0000.0001) // =======================================================
(PID.TID 0000.0001) %MON time_tsnumber                =                    42
(PID.TID 0000.0001) %MON time_secondsf                =   3.7800000000000E+04
(PID.TID 0000.0001) %MON dynstat_eta_max              =   2.7885567772819E+00
(PID.TID 0000.0001) %MON dynstat_eta_min              =  -9.2807497674796E-01
(PID.TID 0000.0001) %MON dynstat_eta_mean             =   3.0437391239581E-02
(PID.TID 0000.0001) %MON dynstat_eta_sd               =   1.0240111554197E-01
(PID.TID 0000.0001) %MON dynstat_eta_del2             =   2.0523603160497E-03
(PID.TID 0000.0001) %MON dynstat_uvel_max             =   4.5328487555255E-01
(PID.TID 0000.0001) %MON dynstat_uvel_min             =  -8.5668031116330E-01
(PID.TID 0000.0001) %MON dynstat_uvel_mean            =  -1.2722330059674E-04
(PID.TID 0000.0001) %MON dynstat_uvel_sd              =   6.1897588742386E-03
(PID.TID 0000.0001) %MON dynstat_uvel_del2            =   7.3328684399381E-05
(PID.TID 0000.0001) %MON dynstat_vvel_max             =   9.5392698306426E-01
(PID.TID 0000.0001) %MON dynstat_vvel_min             =  -6.5489023913771E-01
(PID.TID 0000.0001) %MON dynstat_vvel_mean            =   2.4332093451515E-04
(PID.TID 0000.0001) %MON dynstat_vvel_sd              =   6.3664696462747E-03
(PID.TID 0000.0001) %MON dynstat_vvel_del2            =   1.0212672662777E-04
(PID.TID 0000.0001) %MON dynstat_wvel_max             =   2.0579041837524E-04
(PID.TID 0000.0001) %MON dynstat_wvel_min             =  -2.3057298839834E-04
(PID.TID 0000.0001) %MON dynstat_wvel_mean            =  -5.7297800439038E-08
(PID.TID 0000.0001) %MON dynstat_wvel_sd              =   7.4432104464065E-06
(PID.TID 0000.0001) %MON dynstat_wvel_del2            =   7.6208503572831E-08
(PID.TID 0000.0001) %MON dynstat_theta_max            =   2.1269463973435E+01
(PID.TID 0000.0001) %MON dynstat_theta_min            =   1.6179693656897E+01
(PID.TID 0000.0001) %MON dynstat_theta_mean           =   1.9997894633456E+01
(PID.TID 0000.0001) %MON dynstat_theta_sd             =   2.2256449336286E-02
(PID.TID 0000.0001) %MON dynstat_theta_del2           =   3.2986981843972E-04
(PID.TID 0000.0001) %MON dynstat_salt_max             =   3.5078458274038E+01
(PID.TID 0000.0001) %MON dynstat_salt_min             =   3.0319922266014E+01
(PID.TID 0000.0001) %MON dynstat_salt_mean            =   3.4999699469051E+01
(PID.TID 0000.0001) %MON dynstat_salt_sd              =   2.2860142048929E-02
(PID.TID 0000.0001) %MON dynstat_salt_del2            =   6.1039374769191E-04
(PID.TID 0000.0001) %MON dynstat_sst_max              =   2.1269463973435E+01
(PID.TID 0000.0001) %MON dynstat_sst_min              =   1.6179693656897E+01
(PID.TID 0000.0001) %MON dynstat_sst_mean             =   2.0038552891514E+01
(PID.TID 0000.0001) %MON dynstat_sst_sd               =   1.6049639196160E-01
(PID.TID 0000.0001) %MON dynstat_sst_del2             =   3.8023239992752E-03
(PID.TID 0000.0001) %MON dynstat_sss_max              =   3.5078458274038E+01
(PID.TID 0000.0001) %MON dynstat_sss_min              =   3.0319922266014E+01
(PID.TID 0000.0001) %MON dynstat_sss_mean             =   3.4985329263313E+01
(PID.TID 0000.0001) %MON dynstat_sss_sd               =   1.9519463467674E-01
(PID.TID 0000.0001) %MON dynstat_sss_del2             =   7.6653487660774E-03
(PID.TID 0000.0001) %MON forcing_qnet_max             =   4.3096344270077E+03
(PID.TID 0000.0001) %MON forcing_qnet_min             =  -5.1778131844208E+03
(PID.TID 0000.0001) %MON forcing_qnet_mean            =  -2.6428131512227E+01
(PID.TID 0000.0001) %MON forcing_qnet_sd              =   5.6385159778909E+02
(PID.TID 0000.0001) %MON forcing_qnet_del2            =   8.7961796795500E+00
(PID.TID 0000.0001) %MON forcing_qsw_max              =   0.0000000000000E+00
(PID.TID 0000.0001) %MON forcing_qsw_min              =  -1.0599999816382E+02
(PID.TID 0000.0001) %MON forcing_qsw_mean             =  -1.3824255589330E+01
(PID.TID 0000.0001) %MON forcing_qsw_sd               =   2.5506989762479E+01
(PID.TID 0000.0001) %MON forcing_qsw_del2             =   1.4823440653937E-01
(PID.TID 0000.0001) %MON forcing_empmr_max            =   7.2544217109680E-03
(PID.TID 0000.0001) %MON forcing_empmr_min            =  -1.0427831113338E-01
(PID.TID 0000.0001) %MON forcing_empmr_mean           =  -4.5594207581350E-04
(PID.TID 0000.0001) %MON forcing_empmr_sd             =   4.6109763796314E-03
(PID.TID 0000.0001) %MON forcing_empmr_del2           =   1.8193067741209E-04
(PID.TID 0000.0001) %MON forcing_fu_max               =   6.7597798826030E-01
(PID.TID 0000.0001) %MON forcing_fu_min               =  -5.6350517373841E-01
(PID.TID 0000.0001) %MON forcing_fu_mean              =  -1.0305308938656E-03
(PID.TID 0000.0001) %MON forcing_fu_sd                =   8.9729093280990E-02
(PID.TID 0000.0001) %MON forcing_fu_del2              =   7.5912793974932E-04
(PID.TID 0000.0001) %MON forcing_fv_max               =   4.6960708789903E-01
(PID.TID 0000.0001) %MON forcing_fv_min               =  -4.0393988613252E-01
(PID.TID 0000.0001) %MON forcing_fv_mean              =  -4.8279914103992E-03
(PID.TID 0000.0001) %MON forcing_fv_sd                =   7.9714574346708E-02
(PID.TID 0000.0001) %MON forcing_fv_del2              =   6.6429200426054E-04
(PID.TID 0000.0001) %MON trAdv_CFL_u_max              =   2.9444726455090E-03
(PID.TID 0000.0001) %MON trAdv_CFL_v_max              =   3.0475076833906E-03
(PID.TID 0000.0001) %MON trAdv_CFL_w_max              =   2.3379833548696E-03
(PID.TID 0000.0001) %MON advcfl_uvel_max              =   2.8568289167907E-03
(PID.TID 0000.0001) %MON advcfl_vvel_max              =   2.8586992020507E-03
(PID.TID 0000.0001) %MON advcfl_wvel_max              =   3.6270716915960E-03
(PID.TID 0000.0001) %MON advcfl_W_hf_max              =   2.5127958337519E-03
(PID.TID 0000.0001) %MON pe_b_mean                    =   1.5203332695326E-05
(PID.TID 0000.0001) %MON ke_max                       =   2.8518787077056E-01
(PID.TID 0000.0001) %MON ke_mean                      =   3.6441460159118E-05
(PID.TID 0000.0001) %MON ke_vol                       =   1.3398133768551E+18
(PID.TID 0000.0001) %MON vort_r_min                   =  -2.7573141449158E-06
(PID.TID 0000.0001) %MON vort_r_max                   =   4.3185375915283E-06
(PID.TID 0000.0001) %MON vort_a_mean                  =  -2.0549865324846E-05
(PID.TID 0000.0001) %MON vort_a_sd                    =   7.5259301030196E-05
(PID.TID 0000.0001) %MON vort_p_mean                  =  -2.4783325222603E-05
(PID.TID 0000.0001) %MON vort_p_sd                    =   1.2810556363325E-04
(PID.TID 0000.0001) %MON surfExpan_theta_mean         =  -5.0242652719116E-07
(PID.TID 0000.0001) %MON surfExpan_salt_mean          =   8.1903945718121E-07
(PID.TID 0000.0001) // =======================================================
(PID.TID 0000.0001) // End MONITOR dynamic field statistics
(PID.TID 0000.0001) // =======================================================
(PID.TID 0000.0001) // =======================================================
(PID.TID 0000.0001) // Begin MONITOR SEAICE statistics
(PID.TID 0000.0001) // =======================================================
(PID.TID 0000.0001) %MON seaice_tsnumber              =                    42
(PID.TID 0000.0001) %MON seaice_time_sec              =   3.7800000000000E+04
(PID.TID 0000.0001) %MON seaice_uice_max              =   2.4392918164124E-01
(PID.TID 0000.0001) %MON seaice_uice_min              =  -9.2047152286294E-01
(PID.TID 0000.0001) %MON seaice_uice_mean             =  -5.7673613989956E-03
(PID.TID 0000.0001) %MON seaice_uice_sd               =   4.4362972100208E-02
(PID.TID 0000.0001) %MON seaice_uice_del2             =   8.3311811259190E-04
(PID.TID 0000.0001) %MON seaice_vice_max              =   9.7654550105242E-01
(PID.TID 0000.0001) %MON seaice_vice_min              =  -7.2177320680578E-01
(PID.TID 0000.0001) %MON seaice_vice_mean             =  -8.0385067178744E-03
(PID.TID 0000.0001) %MON seaice_vice_sd               =   4.9947028359832E-02
(PID.TID 0000.0001) %MON seaice_vice_del2             =   1.1700758497869E-03
(PID.TID 0000.0001) %MON seaice_area_max              =   9.9317949270666E-01
(PID.TID 0000.0001) %MON seaice_area_min              =   0.0000000000000E+00
(PID.TID 0000.0001) %MON seaice_area_mean             =   6.4833818605014E-02
(PID.TID 0000.0001) %MON seaice_area_sd               =   2.2545134818820E-01
(PID.TID 0000.0001) %MON seaice_area_del2             =   1.6121195923281E-03
(PID.TID 0000.0001) %MON seaice_heff_max              =   8.3281177666175E+00
(PID.TID 0000.0001) %MON seaice_heff_min              =   0.0000000000000E+00
(PID.TID 0000.0001) %MON seaice_heff_mean             =   1.9849337418342E-01
(PID.TID 0000.0001) %MON seaice_heff_sd               =   9.5678321899400E-01
(PID.TID 0000.0001) %MON seaice_heff_del2             =   6.1626675141887E-03
(PID.TID 0000.0001) %MON seaice_hsnow_max             =   2.0023283278566E+00
(PID.TID 0000.0001) %MON seaice_hsnow_min             =   0.0000000000000E+00
(PID.TID 0000.0001) %MON seaice_hsnow_mean            =   2.2038760073602E-02
(PID.TID 0000.0001) %MON seaice_hsnow_sd              =   1.1717417633068E-01
(PID.TID 0000.0001) %MON seaice_hsnow_del2            =   1.4372860726057E-03
(PID.TID 0000.0001) // =======================================================
(PID.TID 0000.0001) // End MONITOR SEAICE statistics
(PID.TID 0000.0001) // =======================================================
 SEAICE_LSR: Residual Initial ipass,Uice,Vice=    1  2.50597080E-03  2.61259005E-03
 SEAICE_LSR (ipass=   1) iters,dU,Resid=     6  5.71094066E-05  3.72740517E-05
 SEAICE_LSR (ipass=   1) iters,dV,Resid=     6  2.47869639E-06  9.53571199E-06
 SEAICE_LSR: Residual Initial ipass,Uice,Vice=    2  1.58350651E-03  1.66767529E-03
 SEAICE_LSR (ipass=   2) iters,dU,Resid=     6  3.65001790E-05  2.62266751E-05
 SEAICE_LSR (ipass=   2) iters,dV,Resid=     6  1.37291093E-06  5.49551927E-06
 cg2d: Sum(rhs),rhsMax =  -4.13094204744768E+01  6.42291406235883E+01
(PID.TID 0000.0001)      cg2d_init_res =   2.20403401177733E-01
(PID.TID 0000.0001)      cg2d_iters(min,last) =      -1      10
(PID.TID 0000.0001)      cg2d_last_res =   6.07778645596524E-08
(PID.TID 0000.0001) // =======================================================
(PID.TID 0000.0001) // Begin MONITOR dynamic field statistics
(PID.TID 0000.0001) // =======================================================
(PID.TID 0000.0001) %MON time_tsnumber                =                    43
(PID.TID 0000.0001) %MON time_secondsf                =   3.8700000000000E+04
(PID.TID 0000.0001) %MON dynstat_eta_max              =   2.8635148064305E+00
(PID.TID 0000.0001) %MON dynstat_eta_min              =  -9.8464804249110E-01
(PID.TID 0000.0001) %MON dynstat_eta_mean             =   3.0830629116036E-02
(PID.TID 0000.0001) %MON dynstat_eta_sd               =   1.0400879593558E-01
(PID.TID 0000.0001) %MON dynstat_eta_del2             =   2.1315267739205E-03
(PID.TID 0000.0001) %MON dynstat_uvel_max             =   4.5529628830960E-01
(PID.TID 0000.0001) %MON dynstat_uvel_min             =  -7.7746777006795E-01
(PID.TID 0000.0001) %MON dynstat_uvel_mean            =  -1.4158034819036E-04
(PID.TID 0000.0001) %MON dynstat_uvel_sd              =   6.1072053726817E-03
(PID.TID 0000.0001) %MON dynstat_uvel_del2            =   7.3303445675849E-05
(PID.TID 0000.0001) %MON dynstat_vvel_max             =   8.8168019998696E-01
(PID.TID 0000.0001) %MON dynstat_vvel_min             =  -5.3613690534078E-01
(PID.TID 0000.0001) %MON dynstat_vvel_mean            =   2.9038644287689E-04
(PID.TID 0000.0001) %MON dynstat_vvel_sd              =   6.2093881627058E-03
(PID.TID 0000.0001) %MON dynstat_vvel_del2            =   9.7688697091895E-05
(PID.TID 0000.0001) %MON dynstat_wvel_max             =   2.0181900761173E-04
(PID.TID 0000.0001) %MON dynstat_wvel_min             =  -2.3418045906167E-04
(PID.TID 0000.0001) %MON dynstat_wvel_mean            =  -8.6846125674978E-08
(PID.TID 0000.0001) %MON dynstat_wvel_sd              =   7.3788494750452E-06
(PID.TID 0000.0001) %MON dynstat_wvel_del2            =   7.6537920857894E-08
(PID.TID 0000.0001) %MON dynstat_theta_max            =   2.1292796638795E+01
(PID.TID 0000.0001) %MON dynstat_theta_min            =   1.6184446099969E+01
(PID.TID 0000.0001) %MON dynstat_theta_mean           =   1.9997896029328E+01
(PID.TID 0000.0001) %MON dynstat_theta_sd             =   2.2389865957474E-02
(PID.TID 0000.0001) %MON dynstat_theta_del2           =   3.3115668136618E-04
(PID.TID 0000.0001) %MON dynstat_salt_max             =   3.5078458135993E+01
(PID.TID 0000.0001) %MON dynstat_salt_min             =   3.0254960766285E+01
(PID.TID 0000.0001) %MON dynstat_salt_mean            =   3.4999695512366E+01
(PID.TID 0000.0001) %MON dynstat_salt_sd              =   2.3181303482797E-02
(PID.TID 0000.0001) %MON dynstat_salt_del2            =   6.1880133328181E-04
(PID.TID 0000.0001) %MON dynstat_sst_max              =   2.1292796638795E+01
(PID.TID 0000.0001) %MON dynstat_sst_min              =   1.6184446099969E+01
(PID.TID 0000.0001) %MON dynstat_sst_mean             =   2.0039453634791E+01
(PID.TID 0000.0001) %MON dynstat_sst_sd               =   1.6150887202576E-01
(PID.TID 0000.0001) %MON dynstat_sst_del2             =   3.8188890363020E-03
(PID.TID 0000.0001) %MON dynstat_sss_max              =   3.5078458135993E+01
(PID.TID 0000.0001) %MON dynstat_sss_min              =   3.0254960766285E+01
(PID.TID 0000.0001) %MON dynstat_sss_mean             =   3.4985091685989E+01
(PID.TID 0000.0001) %MON dynstat_sss_sd               =   1.9793711411352E-01
(PID.TID 0000.0001) %MON dynstat_sss_del2             =   7.7709538614756E-03
(PID.TID 0000.0001) %MON forcing_qnet_max             =   4.2558303459745E+03
(PID.TID 0000.0001) %MON forcing_qnet_min             =  -5.1137082223619E+03
(PID.TID 0000.0001) %MON forcing_qnet_mean            =  -2.3324257343379E+01
(PID.TID 0000.0001) %MON forcing_qnet_sd              =   5.5847871503998E+02
(PID.TID 0000.0001) %MON forcing_qnet_del2            =   8.6867253492270E+00
(PID.TID 0000.0001) %MON forcing_qsw_max              =   0.0000000000000E+00
(PID.TID 0000.0001) %MON forcing_qsw_min              =  -1.0659345312429E+02
(PID.TID 0000.0001) %MON forcing_qsw_mean             =  -1.3745099358959E+01
(PID.TID 0000.0001) %MON forcing_qsw_sd               =   2.5392487200427E+01
(PID.TID 0000.0001) %MON forcing_qsw_del2             =   1.4577232692947E-01
(PID.TID 0000.0001) %MON forcing_empmr_max            =   7.1796346455812E-03
(PID.TID 0000.0001) %MON forcing_empmr_min            =  -1.0320343822241E-01
(PID.TID 0000.0001) %MON forcing_empmr_mean           =  -4.5222355792366E-04
(PID.TID 0000.0001) %MON forcing_empmr_sd             =   4.5640417498305E-03
(PID.TID 0000.0001) %MON forcing_empmr_del2           =   1.8005498414880E-04
(PID.TID 0000.0001) %MON forcing_fu_max               =   6.6825615709990E-01
(PID.TID 0000.0001) %MON forcing_fu_min               =  -5.6616860399314E-01
(PID.TID 0000.0001) %MON forcing_fu_mean              =  -1.1138135423012E-03
(PID.TID 0000.0001) %MON forcing_fu_sd                =   8.9527063913400E-02
(PID.TID 0000.0001) %MON forcing_fu_del2              =   7.5827428278954E-04
(PID.TID 0000.0001) %MON forcing_fv_max               =   4.6378121741727E-01
(PID.TID 0000.0001) %MON forcing_fv_min               =  -4.0358679622040E-01
(PID.TID 0000.0001) %MON forcing_fv_mean              =  -4.9894483788780E-03
(PID.TID 0000.0001) %MON forcing_fv_sd                =   7.9594273231142E-02
(PID.TID 0000.0001) %MON forcing_fv_del2              =   6.6318561696356E-04
(PID.TID 0000.0001) %MON trAdv_CFL_u_max              =   2.6793987156064E-03
(PID.TID 0000.0001) %MON trAdv_CFL_v_max              =   2.6565467081642E-03
(PID.TID 0000.0001) %MON trAdv_CFL_w_max              =   2.3605178660776E-03
(PID.TID 0000.0001) %MON advcfl_uvel_max              =   2.5926735778331E-03
(PID.TID 0000.0001) %MON advcfl_vvel_max              =   2.6421922525666E-03
(PID.TID 0000.0001) %MON advcfl_wvel_max              =   3.5896848077359E-03
(PID.TID 0000.0001) %MON advcfl_W_hf_max              =   2.4431678383188E-03
(PID.TID 0000.0001) %MON pe_b_mean                    =   1.5677497100167E-05
(PID.TID 0000.0001) %MON ke_max                       =   2.3994176123975E-01
(PID.TID 0000.0001) %MON ke_mean                      =   3.5071983262120E-05
(PID.TID 0000.0001) %MON ke_vol                       =   1.3398135211258E+18
(PID.TID 0000.0001) %MON vort_r_min                   =  -2.5670373218639E-06
(PID.TID 0000.0001) %MON vort_r_max                   =   4.1615895553309E-06
(PID.TID 0000.0001) %MON vort_a_mean                  =  -2.0549865324846E-05
(PID.TID 0000.0001) %MON vort_a_sd                    =   7.5259313772217E-05
(PID.TID 0000.0001) %MON vort_p_mean                  =  -2.4783322940775E-05
(PID.TID 0000.0001) %MON vort_p_sd                    =   1.2810555497873E-04
(PID.TID 0000.0001) %MON surfExpan_theta_mean         =  -4.4084029977995E-07
(PID.TID 0000.0001) %MON surfExpan_salt_mean          =   8.1580426715227E-07
(PID.TID 0000.0001) // =======================================================
(PID.TID 0000.0001) // End MONITOR dynamic field statistics
(PID.TID 0000.0001) // =======================================================
(PID.TID 0000.0001) // =======================================================
(PID.TID 0000.0001) // Begin MONITOR SEAICE statistics
(PID.TID 0000.0001) // =======================================================
(PID.TID 0000.0001) %MON seaice_tsnumber              =                    43
(PID.TID 0000.0001) %MON seaice_time_sec              =   3.8700000000000E+04
(PID.TID 0000.0001) %MON seaice_uice_max              =   2.4225578649648E-01
(PID.TID 0000.0001) %MON seaice_uice_min              =  -8.5483610228173E-01
(PID.TID 0000.0001) %MON seaice_uice_mean             =  -5.8409598914237E-03
(PID.TID 0000.0001) %MON seaice_uice_sd               =   4.3773575824276E-02
(PID.TID 0000.0001) %MON seaice_uice_del2             =   8.2837466265991E-04
(PID.TID 0000.0001) %MON seaice_vice_max              =   9.1257955150440E-01
(PID.TID 0000.0001) %MON seaice_vice_min              =  -6.0824881054438E-01
(PID.TID 0000.0001) %MON seaice_vice_mean             =  -8.2171478492751E-03
(PID.TID 0000.0001) %MON seaice_vice_sd               =   4.8572865218946E-02
(PID.TID 0000.0001) %MON seaice_vice_del2             =   1.1148037633273E-03
(PID.TID 0000.0001) %MON seaice_area_max              =   9.9289763304718E-01
(PID.TID 0000.0001) %MON seaice_area_min              =   0.0000000000000E+00
(PID.TID 0000.0001) %MON seaice_area_mean             =   6.4740191342984E-02
(PID.TID 0000.0001) %MON seaice_area_sd               =   2.2519809617714E-01
(PID.TID 0000.0001) %MON seaice_area_del2             =   1.6074952605931E-03
(PID.TID 0000.0001) %MON seaice_heff_max              =   8.3255099199917E+00
(PID.TID 0000.0001) %MON seaice_heff_min              =   0.0000000000000E+00
(PID.TID 0000.0001) %MON seaice_heff_mean             =   1.9831950470658E-01
(PID.TID 0000.0001) %MON seaice_heff_sd               =   9.5629500770000E-01
(PID.TID 0000.0001) %MON seaice_heff_del2             =   6.1610105677594E-03
(PID.TID 0000.0001) %MON seaice_hsnow_max             =   2.0016024597936E+00
(PID.TID 0000.0001) %MON seaice_hsnow_min             =   0.0000000000000E+00
(PID.TID 0000.0001) %MON seaice_hsnow_mean            =   2.2020098437072E-02
(PID.TID 0000.0001) %MON seaice_hsnow_sd              =   1.1711432179580E-01
(PID.TID 0000.0001) %MON seaice_hsnow_del2            =   1.4365980627965E-03
(PID.TID 0000.0001) // =======================================================
(PID.TID 0000.0001) // End MONITOR SEAICE statistics
(PID.TID 0000.0001) // =======================================================
 SEAICE_LSR: Residual Initial ipass,Uice,Vice=    1  2.73411312E-03  2.69096209E-03
 SEAICE_LSR (ipass=   1) iters,dU,Resid=     6  6.26800369E-05  3.98419525E-05
 SEAICE_LSR (ipass=   1) iters,dV,Resid=     6  2.29367689E-06  1.15003820E-05
 SEAICE_LSR: Residual Initial ipass,Uice,Vice=    2  1.70554345E-03  1.76315750E-03
 SEAICE_LSR (ipass=   2) iters,dU,Resid=     6  3.98968711E-05  2.89416452E-05
 SEAICE_LSR (ipass=   2) iters,dV,Resid=     6  1.57752082E-06  6.80209400E-06
 cg2d: Sum(rhs),rhsMax =  -4.09558331393791E+01  6.56052541515289E+01
(PID.TID 0000.0001)      cg2d_init_res =   2.03134850630369E-01
(PID.TID 0000.0001)      cg2d_iters(min,last) =      -1      10
(PID.TID 0000.0001)      cg2d_last_res =   7.74928726013494E-08
(PID.TID 0000.0001) // =======================================================
(PID.TID 0000.0001) // Begin MONITOR dynamic field statistics
(PID.TID 0000.0001) // =======================================================
(PID.TID 0000.0001) %MON time_tsnumber                =                    44
(PID.TID 0000.0001) %MON time_secondsf                =   3.9600000000000E+04
(PID.TID 0000.0001) %MON dynstat_eta_max              =   2.9473761030346E+00
(PID.TID 0000.0001) %MON dynstat_eta_min              =  -1.0834205165937E+00
(PID.TID 0000.0001) %MON dynstat_eta_mean             =   3.1221629118642E-02
(PID.TID 0000.0001) %MON dynstat_eta_sd               =   1.0557198597930E-01
(PID.TID 0000.0001) %MON dynstat_eta_del2             =   2.2095215260356E-03
(PID.TID 0000.0001) %MON dynstat_uvel_max             =   4.5541049272422E-01
(PID.TID 0000.0001) %MON dynstat_uvel_min             =  -6.8737452210470E-01
(PID.TID 0000.0001) %MON dynstat_uvel_mean            =  -1.5287831308705E-04
(PID.TID 0000.0001) %MON dynstat_uvel_sd              =   6.0088758984880E-03
(PID.TID 0000.0001) %MON dynstat_uvel_del2            =   7.3428502804077E-05
(PID.TID 0000.0001) %MON dynstat_vvel_max             =   8.0328468895816E-01
(PID.TID 0000.0001) %MON dynstat_vvel_min             =  -4.1330498238049E-01
(PID.TID 0000.0001) %MON dynstat_vvel_mean            =   3.3863081655144E-04
(PID.TID 0000.0001) %MON dynstat_vvel_sd              =   6.0670033685574E-03
(PID.TID 0000.0001) %MON dynstat_vvel_del2            =   9.3157213785511E-05
(PID.TID 0000.0001) %MON dynstat_wvel_max             =   1.9758461250055E-04
(PID.TID 0000.0001) %MON dynstat_wvel_min             =  -2.3639345768203E-04
(PID.TID 0000.0001) %MON dynstat_wvel_mean            =  -1.2049223301333E-07
(PID.TID 0000.0001) %MON dynstat_wvel_sd              =   7.3139831649075E-06
(PID.TID 0000.0001) %MON dynstat_wvel_del2            =   7.6932700130325E-08
(PID.TID 0000.0001) %MON dynstat_theta_max            =   2.1315851508815E+01
(PID.TID 0000.0001) %MON dynstat_theta_min            =   1.6188415561489E+01
(PID.TID 0000.0001) %MON dynstat_theta_mean           =   1.9997897294677E+01
(PID.TID 0000.0001) %MON dynstat_theta_sd             =   2.2523393825761E-02
(PID.TID 0000.0001) %MON dynstat_theta_del2           =   3.3253214641001E-04
(PID.TID 0000.0001) %MON dynstat_salt_max             =   3.5078458176224E+01
(PID.TID 0000.0001) %MON dynstat_salt_min             =   3.0191439286784E+01
(PID.TID 0000.0001) %MON dynstat_salt_mean            =   3.4999691605791E+01
(PID.TID 0000.0001) %MON dynstat_salt_sd              =   2.3495768175555E-02
(PID.TID 0000.0001) %MON dynstat_salt_del2            =   6.2702213625869E-04
(PID.TID 0000.0001) %MON dynstat_sst_max              =   2.1315851508815E+01
(PID.TID 0000.0001) %MON dynstat_sst_min              =   1.6188415561489E+01
(PID.TID 0000.0001) %MON dynstat_sst_mean             =   2.0040357639098E+01
(PID.TID 0000.0001) %MON dynstat_sst_sd               =   1.6252677703430E-01
(PID.TID 0000.0001) %MON dynstat_sst_del2             =   3.8366822490242E-03
(PID.TID 0000.0001) %MON dynstat_sss_max              =   3.5078458176224E+01
(PID.TID 0000.0001) %MON dynstat_sss_min              =   3.0191439286784E+01
(PID.TID 0000.0001) %MON dynstat_sss_mean             =   3.4984865023661E+01
(PID.TID 0000.0001) %MON dynstat_sss_sd               =   2.0062154537906E-01
(PID.TID 0000.0001) %MON dynstat_sss_del2             =   7.8742151032209E-03
(PID.TID 0000.0001) %MON forcing_qnet_max             =   4.2039303768251E+03
(PID.TID 0000.0001) %MON forcing_qnet_min             =  -5.0503866880725E+03
(PID.TID 0000.0001) %MON forcing_qnet_mean            =  -2.1114362223265E+01
(PID.TID 0000.0001) %MON forcing_qnet_sd              =   5.5369870768894E+02
(PID.TID 0000.0001) %MON forcing_qnet_del2            =   8.6790282604294E+00
(PID.TID 0000.0001) %MON forcing_qsw_max              =   0.0000000000000E+00
(PID.TID 0000.0001) %MON forcing_qsw_min              =  -1.0799335312551E+02
(PID.TID 0000.0001) %MON forcing_qsw_mean             =  -1.3647937470705E+01
(PID.TID 0000.0001) %MON forcing_qsw_sd               =   2.5216319029534E+01
(PID.TID 0000.0001) %MON forcing_qsw_del2             =   1.4330531020574E-01
(PID.TID 0000.0001) %MON forcing_empmr_max            =   7.1056350134313E-03
(PID.TID 0000.0001) %MON forcing_empmr_min            =  -1.0214032232761E-01
(PID.TID 0000.0001) %MON forcing_empmr_mean           =  -4.4965000299684E-04
(PID.TID 0000.0001) %MON forcing_empmr_sd             =   4.5175950296265E-03
(PID.TID 0000.0001) %MON forcing_empmr_del2           =   1.7820042934672E-04
(PID.TID 0000.0001) %MON forcing_fu_max               =   6.5945120316809E-01
(PID.TID 0000.0001) %MON forcing_fu_min               =  -5.6851680784146E-01
(PID.TID 0000.0001) %MON forcing_fu_mean              =  -1.1615511636527E-03
(PID.TID 0000.0001) %MON forcing_fu_sd                =   8.9424961188628E-02
(PID.TID 0000.0001) %MON forcing_fu_del2              =   7.5806409658911E-04
(PID.TID 0000.0001) %MON forcing_fv_max               =   4.6006725953343E-01
(PID.TID 0000.0001) %MON forcing_fv_min               =  -4.0440590533735E-01
(PID.TID 0000.0001) %MON forcing_fv_mean              =  -5.1665339598209E-03
(PID.TID 0000.0001) %MON forcing_fv_sd                =   7.9511750225021E-02
(PID.TID 0000.0001) %MON forcing_fv_del2              =   6.6184799139179E-04
(PID.TID 0000.0001) %MON trAdv_CFL_u_max              =   2.3744552848043E-03
(PID.TID 0000.0001) %MON trAdv_CFL_v_max              =   2.4285423427751E-03
(PID.TID 0000.0001) %MON trAdv_CFL_w_max              =   2.3639091382201E-03
(PID.TID 0000.0001) %MON advcfl_uvel_max              =   2.2922336206693E-03
(PID.TID 0000.0001) %MON advcfl_vvel_max              =   2.4072589832481E-03
(PID.TID 0000.0001) %MON advcfl_wvel_max              =   3.5527068635692E-03
(PID.TID 0000.0001) %MON advcfl_W_hf_max              =   2.3675986171145E-03
(PID.TID 0000.0001) %MON pe_b_mean                    =   1.6146256723106E-05
(PID.TID 0000.0001) %MON ke_max                       =   1.9546304218643E-01
(PID.TID 0000.0001) %MON ke_mean                      =   3.3729276369019E-05
(PID.TID 0000.0001) %MON ke_vol                       =   1.3398136642198E+18
(PID.TID 0000.0001) %MON vort_r_min                   =  -2.6106679099852E-06
(PID.TID 0000.0001) %MON vort_r_max                   =   3.9206720273237E-06
(PID.TID 0000.0001) %MON vort_a_mean                  =  -2.0549865324846E-05
(PID.TID 0000.0001) %MON vort_a_sd                    =   7.5259326578177E-05
(PID.TID 0000.0001) %MON vort_p_mean                  =  -2.4783320604269E-05
(PID.TID 0000.0001) %MON vort_p_sd                    =   1.2810553661600E-04
(PID.TID 0000.0001) %MON surfExpan_theta_mean         =  -3.7844117368897E-07
(PID.TID 0000.0001) %MON surfExpan_salt_mean          =   8.1283029093273E-07
(PID.TID 0000.0001) // =======================================================
(PID.TID 0000.0001) // End MONITOR dynamic field statistics
(PID.TID 0000.0001) // =======================================================
(PID.TID 0000.0001) // =======================================================
(PID.TID 0000.0001) // Begin MONITOR SEAICE statistics
(PID.TID 0000.0001) // =======================================================
(PID.TID 0000.0001) %MON seaice_tsnumber              =                    44
(PID.TID 0000.0001) %MON seaice_time_sec              =   3.9600000000000E+04
(PID.TID 0000.0001) %MON seaice_uice_max              =   2.4077270426441E-01
(PID.TID 0000.0001) %MON seaice_uice_min              =  -7.7581156428740E-01
(PID.TID 0000.0001) %MON seaice_uice_mean             =  -5.9205870559098E-03
(PID.TID 0000.0001) %MON seaice_uice_sd               =   4.3063336163400E-02
(PID.TID 0000.0001) %MON seaice_uice_del2             =   8.2341768152752E-04
(PID.TID 0000.0001) %MON seaice_vice_max              =   8.4062115560159E-01
(PID.TID 0000.0001) %MON seaice_vice_min              =  -4.8879796781178E-01
(PID.TID 0000.0001) %MON seaice_vice_mean             =  -8.4086784965557E-03
(PID.TID 0000.0001) %MON seaice_vice_sd               =   4.7198780607731E-02
(PID.TID 0000.0001) %MON seaice_vice_del2             =   1.0574326199801E-03
(PID.TID 0000.0001) %MON seaice_area_max              =   9.9261098117935E-01
(PID.TID 0000.0001) %MON seaice_area_min              =   0.0000000000000E+00
(PID.TID 0000.0001) %MON seaice_area_mean             =   6.4646664191798E-02
(PID.TID 0000.0001) %MON seaice_area_sd               =   2.2494522993236E-01
(PID.TID 0000.0001) %MON seaice_area_del2             =   1.6029044205335E-03
(PID.TID 0000.0001) %MON seaice_heff_max              =   8.3229020492498E+00
(PID.TID 0000.0001) %MON seaice_heff_min              =   0.0000000000000E+00
(PID.TID 0000.0001) %MON seaice_heff_mean             =   1.9814575318921E-01
(PID.TID 0000.0001) %MON seaice_heff_sd               =   9.5580660109243E-01
(PID.TID 0000.0001) %MON seaice_heff_del2             =   6.1593499812083E-03
(PID.TID 0000.0001) %MON seaice_hsnow_max             =   2.0008769540509E+00
(PID.TID 0000.0001) %MON seaice_hsnow_min             =   0.0000000000000E+00
(PID.TID 0000.0001) %MON seaice_hsnow_mean            =   2.2001413266471E-02
(PID.TID 0000.0001) %MON seaice_hsnow_sd              =   1.1705442938138E-01
(PID.TID 0000.0001) %MON seaice_hsnow_del2            =   1.4359073744761E-03
(PID.TID 0000.0001) // =======================================================
(PID.TID 0000.0001) // End MONITOR SEAICE statistics
(PID.TID 0000.0001) // =======================================================
 Compute Stats, Diag. #    211  SIarea    vol(   0 ): 1.456E+15  Parms: SM      M1      
 Compute Stats, Diag. #    214  SIheff    vol(   0 ): 1.456E+15  Parms: SM      M1      
 Compute Stats, Diag. #    216  SIhsnow   vol(   0 ): 1.456E+15  Parms: SM      M1      
 Compute Stats, Diag. #     83  sIceLoad  vol(   0 ): 1.456E+15  Parms: SM      U1      
 Compute Stats, Diag. #    220  SIuice    vol(   0 ): 1.383E+15  Parms: UU      M1      
 Compute Stats, Diag. #    221  SIvice    vol(   0 ): 1.391E+15  Parms: VV      M1      
 Compute Stats, Diag. #    222  SItaux    vol(   0 ): 1.383E+15  Parms: UU      U1      
 Compute Stats, Diag. #    223  SItauy    vol(   0 ): 1.391E+15  Parms: VV      U1      
 Compute Stats, Diag. #    282  SIareaN   vol(   0 ): 7.278E+15  Parms: SM      MX      
 Compute Stats, Diag. #    281  SIheffN   vol(   0 ): 7.278E+15  Parms: SM      MX      
 Compute Stats, Diag. #    283  SIhsnowN  vol(   0 ): 7.278E+15  Parms: SM      MX      
 Compute Stats, Diag. #    287  SIqSnow   vol(   0 ): 7.278E+15  Parms: SM      MX      
 Compute Stats, Diag. #    286  SIqIce    vol(   0 ): 2.911E+16  Parms: SM      MX      
 Compute Stats, Diag. #    288  SImeltPd  vol(   0 ): 7.278E+15  Parms: SM      MX      
 Compute Stats, Diag. #    285  SItIces   vol(   0 ): 7.278E+15  Parms: SM      MX      
 Compute Stats, Diag. #    289  SIiceAge  vol(   0 ): 7.278E+15  Parms: SM      MX      
 Compute Stats, Diag. #    290  SI_dArea  vol(   0 ): 7.278E+15  Parms: SM      MX      
 Compute Stats, Diag. #    291  SI_dHeff  vol(   0 ): 7.278E+15  Parms: SM      MX      
 Compute Stats, Diag. #    292  SI_dHsnw  vol(   0 ): 7.278E+15  Parms: SM      MX      
 Compute Stats, Diag. #    295  SI_dQSnw  vol(   0 ): 7.278E+15  Parms: SM      MX      
 Compute Stats, Diag. #    294  SI_dQIce  vol(   0 ): 2.911E+16  Parms: SM      MX      
 SEAICE_LSR: Residual Initial ipass,Uice,Vice=    1  2.65206798E-03  2.79208617E-03
 SEAICE_LSR (ipass=   1) iters,dU,Resid=     6  6.81688120E-05  4.32784524E-05
 SEAICE_LSR (ipass=   1) iters,dV,Resid=     6  2.95233384E-06  1.45424684E-05
 SEAICE_LSR: Residual Initial ipass,Uice,Vice=    2  1.78102544E-03  1.92389198E-03
 SEAICE_LSR (ipass=   2) iters,dU,Resid=     6  4.32071304E-05  3.21196675E-05
 SEAICE_LSR (ipass=   2) iters,dV,Resid=     6  1.75654006E-06  8.32435153E-06
 cg2d: Sum(rhs),rhsMax =  -4.08177042352587E+01  6.66444952726580E+01
(PID.TID 0000.0001)      cg2d_init_res =   1.86863093087831E-01
(PID.TID 0000.0001)      cg2d_iters(min,last) =      -1      10
(PID.TID 0000.0001)      cg2d_last_res =   9.78323324651342E-08
(PID.TID 0000.0001) // =======================================================
(PID.TID 0000.0001) // Begin MONITOR dynamic field statistics
(PID.TID 0000.0001) // =======================================================
(PID.TID 0000.0001) %MON time_tsnumber                =                    45
(PID.TID 0000.0001) %MON time_secondsf                =   4.0500000000000E+04
(PID.TID 0000.0001) %MON dynstat_eta_max              =   3.1593079631101E+00
(PID.TID 0000.0001) %MON dynstat_eta_min              =  -1.1541169330798E+00
(PID.TID 0000.0001) %MON dynstat_eta_mean             =   3.1609238321789E-02
(PID.TID 0000.0001) %MON dynstat_eta_sd               =   1.0691458591029E-01
(PID.TID 0000.0001) %MON dynstat_eta_del2             =   2.2795607824902E-03
(PID.TID 0000.0001) %MON dynstat_uvel_max             =   4.5362793625977E-01
(PID.TID 0000.0001) %MON dynstat_uvel_min             =  -6.0388956417513E-01
(PID.TID 0000.0001) %MON dynstat_uvel_mean            =  -1.6121259169226E-04
(PID.TID 0000.0001) %MON dynstat_uvel_sd              =   5.8997094978707E-03
(PID.TID 0000.0001) %MON dynstat_uvel_del2            =   7.3739604852465E-05
(PID.TID 0000.0001) %MON dynstat_vvel_max             =   7.2023601446122E-01
(PID.TID 0000.0001) %MON dynstat_vvel_min             =  -3.9683935926442E-01
(PID.TID 0000.0001) %MON dynstat_vvel_mean            =   3.8759240202970E-04
(PID.TID 0000.0001) %MON dynstat_vvel_sd              =   5.9442332376444E-03
(PID.TID 0000.0001) %MON dynstat_vvel_del2            =   8.8717219958461E-05
(PID.TID 0000.0001) %MON dynstat_wvel_max             =   1.9320063678214E-04
(PID.TID 0000.0001) %MON dynstat_wvel_min             =  -2.3710051775011E-04
(PID.TID 0000.0001) %MON dynstat_wvel_mean            =  -1.5562486646736E-07
(PID.TID 0000.0001) %MON dynstat_wvel_sd              =   7.2559216691316E-06
(PID.TID 0000.0001) %MON dynstat_wvel_del2            =   7.7430095804883E-08
(PID.TID 0000.0001) %MON dynstat_theta_max            =   2.1338630743049E+01
(PID.TID 0000.0001) %MON dynstat_theta_min            =   1.6191558997694E+01
(PID.TID 0000.0001) %MON dynstat_theta_mean           =   1.9997898532909E+01
(PID.TID 0000.0001) %MON dynstat_theta_sd             =   2.2656344049795E-02
(PID.TID 0000.0001) %MON dynstat_theta_del2           =   3.3389959550727E-04
(PID.TID 0000.0001) %MON dynstat_salt_max             =   3.5078458180870E+01
(PID.TID 0000.0001) %MON dynstat_salt_min             =   3.0129321153926E+01
(PID.TID 0000.0001) %MON dynstat_salt_mean            =   3.4999687758645E+01
(PID.TID 0000.0001) %MON dynstat_salt_sd              =   2.3803587605972E-02
(PID.TID 0000.0001) %MON dynstat_salt_del2            =   6.3505453979960E-04
(PID.TID 0000.0001) %MON dynstat_sst_max              =   2.1338630743049E+01
(PID.TID 0000.0001) %MON dynstat_sst_min              =   1.6191558997694E+01
(PID.TID 0000.0001) %MON dynstat_sst_mean             =   2.0041252669273E+01
(PID.TID 0000.0001) %MON dynstat_sst_sd               =   1.6354084539987E-01
(PID.TID 0000.0001) %MON dynstat_sst_del2             =   3.8545700987750E-03
(PID.TID 0000.0001) %MON dynstat_sss_max              =   3.5078458180870E+01
(PID.TID 0000.0001) %MON dynstat_sss_min              =   3.0129321153926E+01
(PID.TID 0000.0001) %MON dynstat_sss_mean             =   3.4984643992855E+01
(PID.TID 0000.0001) %MON dynstat_sss_sd               =   2.0324775694075E-01
(PID.TID 0000.0001) %MON dynstat_sss_del2             =   7.9751161520555E-03
(PID.TID 0000.0001) %MON forcing_qnet_max             =   4.1517899102226E+03
(PID.TID 0000.0001) %MON forcing_qnet_min             =  -4.9875649372626E+03
(PID.TID 0000.0001) %MON forcing_qnet_mean            =  -2.0645421644700E+01
(PID.TID 0000.0001) %MON forcing_qnet_sd              =   5.5024371142156E+02
(PID.TID 0000.0001) %MON forcing_qnet_del2            =   8.8526365064654E+00
(PID.TID 0000.0001) %MON forcing_qsw_max              =   0.0000000000000E+00
(PID.TID 0000.0001) %MON forcing_qsw_min              =  -1.0998404877368E+02
(PID.TID 0000.0001) %MON forcing_qsw_mean             =  -1.3594905967148E+01
(PID.TID 0000.0001) %MON forcing_qsw_sd               =   2.4966734501916E+01
(PID.TID 0000.0001) %MON forcing_qsw_del2             =   1.4000512102313E-01
(PID.TID 0000.0001) %MON forcing_empmr_max            =   7.0324228145182E-03
(PID.TID 0000.0001) %MON forcing_empmr_min            =  -1.0108810663223E-01
(PID.TID 0000.0001) %MON forcing_empmr_mean           =  -4.4575058361884E-04
(PID.TID 0000.0001) %MON forcing_empmr_sd             =   4.4718165144390E-03
(PID.TID 0000.0001) %MON forcing_empmr_del2           =   1.7637106469491E-04
(PID.TID 0000.0001) %MON forcing_fu_max               =   6.5675493724202E-01
(PID.TID 0000.0001) %MON forcing_fu_min               =  -5.7171404498189E-01
(PID.TID 0000.0001) %MON forcing_fu_mean              =  -1.2190930169736E-03
(PID.TID 0000.0001) %MON forcing_fu_sd                =   8.9377044094907E-02
(PID.TID 0000.0001) %MON forcing_fu_del2              =   7.5849586244442E-04
(PID.TID 0000.0001) %MON forcing_fv_max               =   4.5746935027379E-01
(PID.TID 0000.0001) %MON forcing_fv_min               =  -4.0572938277913E-01
(PID.TID 0000.0001) %MON forcing_fv_mean              =  -5.3194568041814E-03
(PID.TID 0000.0001) %MON forcing_fv_sd                =   7.9430764376429E-02
(PID.TID 0000.0001) %MON forcing_fv_del2              =   6.6080622774207E-04
(PID.TID 0000.0001) %MON trAdv_CFL_u_max              =   2.0365283346568E-03
(PID.TID 0000.0001) %MON trAdv_CFL_v_max              =   2.1837489232386E-03
(PID.TID 0000.0001) %MON trAdv_CFL_w_max              =   2.3474821844331E-03
(PID.TID 0000.0001) %MON advcfl_uvel_max              =   1.9621600760430E-03
(PID.TID 0000.0001) %MON advcfl_vvel_max              =   2.1583812559894E-03
(PID.TID 0000.0001) %MON advcfl_wvel_max              =   3.5161080567733E-03
(PID.TID 0000.0001) %MON advcfl_W_hf_max              =   2.3474821844331E-03
(PID.TID 0000.0001) %MON pe_b_mean                    =   1.6558746918525E-05
(PID.TID 0000.0001) %MON ke_max                       =   1.5580471518180E-01
(PID.TID 0000.0001) %MON ke_mean                      =   3.2465576294923E-05
(PID.TID 0000.0001) %MON ke_vol                       =   1.3398138064995E+18
(PID.TID 0000.0001) %MON vort_r_min                   =  -2.6433582369824E-06
(PID.TID 0000.0001) %MON vort_r_max                   =   3.6038319944987E-06
(PID.TID 0000.0001) %MON vort_a_mean                  =  -2.0549865324846E-05
(PID.TID 0000.0001) %MON vort_a_sd                    =   7.5259339305153E-05
(PID.TID 0000.0001) %MON vort_p_mean                  =  -2.4783318193607E-05
(PID.TID 0000.0001) %MON vort_p_sd                    =   1.2810550945666E-04
(PID.TID 0000.0001) %MON surfExpan_theta_mean         =  -3.1643210400940E-07
(PID.TID 0000.0001) %MON surfExpan_salt_mean          =   8.1037287295477E-07
(PID.TID 0000.0001) // =======================================================
(PID.TID 0000.0001) // End MONITOR dynamic field statistics
(PID.TID 0000.0001) // =======================================================
(PID.TID 0000.0001) // =======================================================
(PID.TID 0000.0001) // Begin MONITOR SEAICE statistics
(PID.TID 0000.0001) // =======================================================
(PID.TID 0000.0001) %MON seaice_tsnumber              =                    45
(PID.TID 0000.0001) %MON seaice_time_sec              =   4.0500000000000E+04
(PID.TID 0000.0001) %MON seaice_uice_max              =   2.4315977707428E-01
(PID.TID 0000.0001) %MON seaice_uice_min              =  -6.8540377950333E-01
(PID.TID 0000.0001) %MON seaice_uice_mean             =  -5.9441505674461E-03
(PID.TID 0000.0001) %MON seaice_uice_sd               =   4.2318853139151E-02
(PID.TID 0000.0001) %MON seaice_uice_del2             =   8.1975476144248E-04
(PID.TID 0000.0001) %MON seaice_vice_max              =   7.6221779373270E-01
(PID.TID 0000.0001) %MON seaice_vice_min              =  -3.9095268776951E-01
(PID.TID 0000.0001) %MON seaice_vice_mean             =  -8.6037733382403E-03
(PID.TID 0000.0001) %MON seaice_vice_sd               =   4.5914261974341E-02
(PID.TID 0000.0001) %MON seaice_vice_del2             =   1.0002570721310E-03
(PID.TID 0000.0001) %MON seaice_area_max              =   9.9232413461000E-01
(PID.TID 0000.0001) %MON seaice_area_min              =   0.0000000000000E+00
(PID.TID 0000.0001) %MON seaice_area_mean             =   6.4553205930206E-02
(PID.TID 0000.0001) %MON seaice_area_sd               =   2.2469272777964E-01
(PID.TID 0000.0001) %MON seaice_area_del2             =   1.5983351830960E-03
(PID.TID 0000.0001) %MON seaice_heff_max              =   8.3202946025905E+00
(PID.TID 0000.0001) %MON seaice_heff_min              =   0.0000000000000E+00
(PID.TID 0000.0001) %MON seaice_heff_mean             =   1.9797211865762E-01
(PID.TID 0000.0001) %MON seaice_heff_sd               =   9.5531803371319E-01
(PID.TID 0000.0001) %MON seaice_heff_del2             =   6.1576879524512E-03
(PID.TID 0000.0001) %MON seaice_hsnow_max             =   2.0001516580360E+00
(PID.TID 0000.0001) %MON seaice_hsnow_min             =   0.0000000000000E+00
(PID.TID 0000.0001) %MON seaice_hsnow_mean            =   2.1982731670520E-02
(PID.TID 0000.0001) %MON seaice_hsnow_sd              =   1.1699449224753E-01
(PID.TID 0000.0001) %MON seaice_hsnow_del2            =   1.4352144174719E-03
(PID.TID 0000.0001) // =======================================================
(PID.TID 0000.0001) // End MONITOR SEAICE statistics
(PID.TID 0000.0001) // =======================================================
 Computing Diagnostic #    211  SIarea       Counter:       1   Parms: SM      M1      
 Computing Diagnostic #    214  SIheff       Counter:       1   Parms: SM      M1      
 Computing Diagnostic #    216  SIhsnow      Counter:       1   Parms: SM      M1      
 Computing Diagnostic #     83  sIceLoad     Counter:       1   Parms: SM      U1      
 Computing Diagnostic #    220  SIuice       Counter:       1   Parms: UU      M1      
           Vector  Mate for  SIuice       Diagnostic #    221  SIvice   exists 
 Computing Diagnostic #    221  SIvice       Counter:       1   Parms: VV      M1      
           Vector  Mate for  SIvice       Diagnostic #    220  SIuice   exists 
 Computing Diagnostic #    222  SItaux       Counter:       1   Parms: UU      U1      
           Vector  Mate for  SItaux       Diagnostic #    223  SItauy   exists 
 Computing Diagnostic #    223  SItauy       Counter:       1   Parms: VV      U1      
           Vector  Mate for  SItauy       Diagnostic #    222  SItaux   exists 
 Computing Diagnostic #    284  CPLoWGHT     Counter:       1   Parms: SM      M1      
 Computing Diagnostic #    282  SIareaN      Counter:       1   Parms: SM      MX      
 Computing Diagnostic #    281  SIheffN      Counter:       1   Parms: SM      MX      
 Computing Diagnostic #    283  SIhsnowN     Counter:       1   Parms: SM      MX      
 Computing Diagnostic #    287  SIqSnow      Counter:       1   Parms: SM      MX      
 Computing Diagnostic #    288  SImeltPd     Counter:       1   Parms: SM      MX      
 Computing Diagnostic #    285  SItIces      Counter:       1   Parms: SM      MX      
 Computing Diagnostic #    289  SIiceAge     Counter:       1   Parms: SM      MX      
 Computing Diagnostic #    290  SI_dArea     Counter:       1   Parms: SM      MX      
 Computing Diagnostic #    291  SI_dHeff     Counter:       1   Parms: SM      MX      
 Computing Diagnostic #    292  SI_dHsnw     Counter:       1   Parms: SM      MX      
 Computing Diagnostic #    295  SI_dQSnw     Counter:       1   Parms: SM      MX      
 Computing Diagnostic #    286  SIqIce       Counter:       1   Parms: SM      MX      
 Computing Diagnostic #    294  SI_dQIce     Counter:       1   Parms: SM      MX      
 SEAICE_LSR: Residual Initial ipass,Uice,Vice=    1  2.78605398E-03  2.90753658E-03
 SEAICE_LSR (ipass=   1) iters,dU,Resid=     6  7.06149089E-05  4.56975197E-05
 SEAICE_LSR (ipass=   1) iters,dV,Resid=     6  3.63535955E-06  1.74916688E-05
 SEAICE_LSR: Residual Initial ipass,Uice,Vice=    2  1.89918109E-03  2.07004495E-03
 SEAICE_LSR (ipass=   2) iters,dU,Resid=     6  4.45034985E-05  3.43595318E-05
 SEAICE_LSR (ipass=   2) iters,dV,Resid=     6  1.97928258E-06  9.94138545E-06
 cg2d: Sum(rhs),rhsMax =  -4.08940032895371E+01  6.73305091694663E+01
(PID.TID 0000.0001)      cg2d_init_res =   1.72411380159597E-01
(PID.TID 0000.0001)      cg2d_iters(min,last) =      -1      11
(PID.TID 0000.0001)      cg2d_last_res =   2.91579111454189E-08
(PID.TID 0000.0001) // =======================================================
(PID.TID 0000.0001) // Begin MONITOR dynamic field statistics
(PID.TID 0000.0001) // =======================================================
(PID.TID 0000.0001) %MON time_tsnumber                =                    46
(PID.TID 0000.0001) %MON time_secondsf                =   4.1400000000000E+04
(PID.TID 0000.0001) %MON dynstat_eta_max              =   3.3127809289746E+00
(PID.TID 0000.0001) %MON dynstat_eta_min              =  -1.1971964006147E+00
(PID.TID 0000.0001) %MON dynstat_eta_mean             =   3.1994306395464E-02
(PID.TID 0000.0001) %MON dynstat_eta_sd               =   1.0787975844268E-01
(PID.TID 0000.0001) %MON dynstat_eta_del2             =   2.3358922039049E-03
(PID.TID 0000.0001) %MON dynstat_uvel_max             =   4.4996544716782E-01
(PID.TID 0000.0001) %MON dynstat_uvel_min             =  -5.3579341263343E-01
(PID.TID 0000.0001) %MON dynstat_uvel_mean            =  -1.6670422167515E-04
(PID.TID 0000.0001) %MON dynstat_uvel_sd              =   5.7853658840826E-03
(PID.TID 0000.0001) %MON dynstat_uvel_del2            =   7.4259510721392E-05
(PID.TID 0000.0001) %MON dynstat_vvel_max             =   6.3400150001285E-01
(PID.TID 0000.0001) %MON dynstat_vvel_min             =  -3.9334796285473E-01
(PID.TID 0000.0001) %MON dynstat_vvel_mean            =   4.3681556795091E-04
(PID.TID 0000.0001) %MON dynstat_vvel_sd              =   5.8450245905699E-03
(PID.TID 0000.0001) %MON dynstat_vvel_del2            =   8.4574705190303E-05
(PID.TID 0000.0001) %MON dynstat_wvel_max             =   1.8859151174091E-04
(PID.TID 0000.0001) %MON dynstat_wvel_min             =  -2.3618894822047E-04
(PID.TID 0000.0001) %MON dynstat_wvel_mean            =  -1.9185464491564E-07
(PID.TID 0000.0001) %MON dynstat_wvel_sd              =   7.2107264299978E-06
(PID.TID 0000.0001) %MON dynstat_wvel_del2            =   7.8034997077216E-08
(PID.TID 0000.0001) %MON dynstat_theta_max            =   2.1361133405136E+01
(PID.TID 0000.0001) %MON dynstat_theta_min            =   1.6193846934721E+01
(PID.TID 0000.0001) %MON dynstat_theta_mean           =   1.9997899697333E+01
(PID.TID 0000.0001) %MON dynstat_theta_sd             =   2.2789226154484E-02
(PID.TID 0000.0001) %MON dynstat_theta_del2           =   3.3529497628737E-04
(PID.TID 0000.0001) %MON dynstat_salt_max             =   3.5078458275086E+01
(PID.TID 0000.0001) %MON dynstat_salt_min             =   3.0068570853151E+01
(PID.TID 0000.0001) %MON dynstat_salt_mean            =   3.4999683963680E+01
(PID.TID 0000.0001) %MON dynstat_salt_sd              =   2.4104968656969E-02
(PID.TID 0000.0001) %MON dynstat_salt_del2            =   6.4290394499634E-04
(PID.TID 0000.0001) %MON dynstat_sst_max              =   2.1361133405136E+01
(PID.TID 0000.0001) %MON dynstat_sst_min              =   1.6193846934721E+01
(PID.TID 0000.0001) %MON dynstat_sst_mean             =   2.0042139030160E+01
(PID.TID 0000.0001) %MON dynstat_sst_sd               =   1.6456233502930E-01
(PID.TID 0000.0001) %MON dynstat_sst_del2             =   3.8726571838587E-03
(PID.TID 0000.0001) %MON dynstat_sss_max              =   3.5078458275086E+01
(PID.TID 0000.0001) %MON dynstat_sss_min              =   3.0068570853151E+01
(PID.TID 0000.0001) %MON dynstat_sss_mean             =   3.4984428128982E+01
(PID.TID 0000.0001) %MON dynstat_sss_sd               =   2.0581775428705E-01
(PID.TID 0000.0001) %MON dynstat_sss_del2             =   8.0737134566071E-03
(PID.TID 0000.0001) %MON forcing_qnet_max             =   4.1011393650491E+03
(PID.TID 0000.0001) %MON forcing_qnet_min             =  -4.9885551757812E+03
(PID.TID 0000.0001) %MON forcing_qnet_mean            =  -1.9381183782569E+01
(PID.TID 0000.0001) %MON forcing_qnet_sd              =   5.4819806833329E+02
(PID.TID 0000.0001) %MON forcing_qnet_del2            =   9.2535103302391E+00
(PID.TID 0000.0001) %MON forcing_qsw_max              =   0.0000000000000E+00
(PID.TID 0000.0001) %MON forcing_qsw_min              =  -1.1048990163490E+02
(PID.TID 0000.0001) %MON forcing_qsw_mean             =  -1.3633661608180E+01
(PID.TID 0000.0001) %MON forcing_qsw_sd               =   2.4801110820441E+01
(PID.TID 0000.0001) %MON forcing_qsw_del2             =   1.3908274672811E-01
(PID.TID 0000.0001) %MON forcing_empmr_max            =   6.9598988629878E-03
(PID.TID 0000.0001) %MON forcing_empmr_min            =  -1.0004679858685E-01
(PID.TID 0000.0001) %MON forcing_empmr_mean           =  -4.4282828472561E-04
(PID.TID 0000.0001) %MON forcing_empmr_sd             =   4.4264570397859E-03
(PID.TID 0000.0001) %MON forcing_empmr_del2           =   1.7456273974876E-04
(PID.TID 0000.0001) %MON forcing_fu_max               =   6.5606812011984E-01
(PID.TID 0000.0001) %MON forcing_fu_min               =  -5.7008435643970E-01
(PID.TID 0000.0001) %MON forcing_fu_mean              =  -1.2712717523676E-03
(PID.TID 0000.0001) %MON forcing_fu_sd                =   8.9261422030844E-02
(PID.TID 0000.0001) %MON forcing_fu_del2              =   7.5744541082897E-04
(PID.TID 0000.0001) %MON forcing_fv_max               =   4.5334935958525E-01
(PID.TID 0000.0001) %MON forcing_fv_min               =  -4.0641935501437E-01
(PID.TID 0000.0001) %MON forcing_fv_mean              =  -5.4399289071479E-03
(PID.TID 0000.0001) %MON forcing_fv_sd                =   7.9211394902848E-02
(PID.TID 0000.0001) %MON forcing_fv_del2              =   6.5870481205882E-04
(PID.TID 0000.0001) %MON trAdv_CFL_u_max              =   1.6729161040783E-03
(PID.TID 0000.0001) %MON trAdv_CFL_v_max              =   2.0357900091962E-03
(PID.TID 0000.0001) %MON trAdv_CFL_w_max              =   2.3106531278116E-03
(PID.TID 0000.0001) %MON advcfl_uvel_max              =   1.6093200351937E-03
(PID.TID 0000.0001) %MON advcfl_vvel_max              =   1.8999563010197E-03
(PID.TID 0000.0001) %MON advcfl_wvel_max              =   3.4798886464990E-03
(PID.TID 0000.0001) %MON advcfl_W_hf_max              =   2.3106531278116E-03
(PID.TID 0000.0001) %MON pe_b_mean                    =   1.6867550014874E-05
(PID.TID 0000.0001) %MON ke_max                       =   1.2421069093163E-01
(PID.TID 0000.0001) %MON ke_mean                      =   3.1328772050194E-05
(PID.TID 0000.0001) %MON ke_vol                       =   1.3398139475454E+18
(PID.TID 0000.0001) %MON vort_r_min                   =  -2.6646850610944E-06
(PID.TID 0000.0001) %MON vort_r_max                   =   3.2203918322699E-06
(PID.TID 0000.0001) %MON vort_a_mean                  =  -2.0549865324846E-05
(PID.TID 0000.0001) %MON vort_a_sd                    =   7.5259351840860E-05
(PID.TID 0000.0001) %MON vort_p_mean                  =  -2.4783315708305E-05
(PID.TID 0000.0001) %MON vort_p_sd                    =   1.2810547506723E-04
(PID.TID 0000.0001) %MON surfExpan_theta_mean         =  -2.5591402381021E-07
(PID.TID 0000.0001) %MON surfExpan_salt_mean          =   8.0863578635948E-07
(PID.TID 0000.0001) // =======================================================
(PID.TID 0000.0001) // End MONITOR dynamic field statistics
(PID.TID 0000.0001) // =======================================================
(PID.TID 0000.0001) // =======================================================
(PID.TID 0000.0001) // Begin MONITOR SEAICE statistics
(PID.TID 0000.0001) // =======================================================
(PID.TID 0000.0001) %MON seaice_tsnumber              =                    46
(PID.TID 0000.0001) %MON seaice_time_sec              =   4.1400000000000E+04
(PID.TID 0000.0001) %MON seaice_uice_max              =   2.5456520608892E-01
(PID.TID 0000.0001) %MON seaice_uice_min              =  -6.1525136327154E-01
(PID.TID 0000.0001) %MON seaice_uice_mean             =  -5.9466414875794E-03
(PID.TID 0000.0001) %MON seaice_uice_sd               =   4.1544674875441E-02
(PID.TID 0000.0001) %MON seaice_uice_del2             =   8.1779690190327E-04
(PID.TID 0000.0001) %MON seaice_vice_max              =   6.7892603341437E-01
(PID.TID 0000.0001) %MON seaice_vice_min              =  -3.8956327887603E-01
(PID.TID 0000.0001) %MON seaice_vice_mean             =  -8.8058505371403E-03
(PID.TID 0000.0001) %MON seaice_vice_sd               =   4.4736051458567E-02
(PID.TID 0000.0001) %MON seaice_vice_del2             =   9.4570331703338E-04
(PID.TID 0000.0001) %MON seaice_area_max              =   9.9203737152832E-01
(PID.TID 0000.0001) %MON seaice_area_min              =   0.0000000000000E+00
(PID.TID 0000.0001) %MON seaice_area_mean             =   6.4459811687382E-02
(PID.TID 0000.0001) %MON seaice_area_sd               =   2.2444064721415E-01
(PID.TID 0000.0001) %MON seaice_area_del2             =   1.5938149208728E-03
(PID.TID 0000.0001) %MON seaice_heff_max              =   8.3176871488614E+00
(PID.TID 0000.0001) %MON seaice_heff_min              =   0.0000000000000E+00
(PID.TID 0000.0001) %MON seaice_heff_mean             =   1.9779860979052E-01
(PID.TID 0000.0001) %MON seaice_heff_sd               =   9.5482931129761E-01
(PID.TID 0000.0001) %MON seaice_heff_del2             =   6.1560263063303E-03
(PID.TID 0000.0001) %MON seaice_hsnow_max             =   1.9994289531329E+00
(PID.TID 0000.0001) %MON seaice_hsnow_min             =   0.0000000000000E+00
(PID.TID 0000.0001) %MON seaice_hsnow_mean            =   2.1963959910080E-02
(PID.TID 0000.0001) %MON seaice_hsnow_sd              =   1.1693453070035E-01
(PID.TID 0000.0001) %MON seaice_hsnow_del2            =   1.4345235038150E-03
(PID.TID 0000.0001) // =======================================================
(PID.TID 0000.0001) // End MONITOR SEAICE statistics
(PID.TID 0000.0001) // =======================================================
 SEAICE_LSR: Residual Initial ipass,Uice,Vice=    1  2.90209004E-03  3.02696529E-03
 SEAICE_LSR (ipass=   1) iters,dU,Resid=     6  7.43390700E-05  4.77862498E-05
 SEAICE_LSR (ipass=   1) iters,dV,Resid=     6  4.14915173E-06  1.96417655E-05
 SEAICE_LSR: Residual Initial ipass,Uice,Vice=    2  1.97481662E-03  2.20001973E-03
 SEAICE_LSR (ipass=   2) iters,dU,Resid=     6  4.65961344E-05  3.62571653E-05
 SEAICE_LSR (ipass=   2) iters,dV,Resid=     6  2.18566555E-06  1.07352402E-05
 cg2d: Sum(rhs),rhsMax =  -4.11862345192639E+01  6.76509816119500E+01
(PID.TID 0000.0001)      cg2d_init_res =   1.60716322505748E-01
(PID.TID 0000.0001)      cg2d_iters(min,last) =      -1      11
(PID.TID 0000.0001)      cg2d_last_res =   2.95521601592941E-08
(PID.TID 0000.0001) // =======================================================
(PID.TID 0000.0001) // Begin MONITOR dynamic field statistics
(PID.TID 0000.0001) // =======================================================
(PID.TID 0000.0001) %MON time_tsnumber                =                    47
(PID.TID 0000.0001) %MON time_secondsf                =   4.2300000000000E+04
(PID.TID 0000.0001) %MON dynstat_eta_max              =   3.4069699587689E+00
(PID.TID 0000.0001) %MON dynstat_eta_min              =  -1.2134983209072E+00
(PID.TID 0000.0001) %MON dynstat_eta_mean             =   3.2376311055522E-02
(PID.TID 0000.0001) %MON dynstat_eta_sd               =   1.0834382917270E-01
(PID.TID 0000.0001) %MON dynstat_eta_del2             =   2.3740807093037E-03
(PID.TID 0000.0001) %MON dynstat_uvel_max             =   4.4445568511840E-01
(PID.TID 0000.0001) %MON dynstat_uvel_min             =  -4.6368617066873E-01
(PID.TID 0000.0001) %MON dynstat_uvel_mean            =  -1.6950018632083E-04
(PID.TID 0000.0001) %MON dynstat_uvel_sd              =   5.6716218615176E-03
(PID.TID 0000.0001) %MON dynstat_uvel_del2            =   7.4995708272525E-05
(PID.TID 0000.0001) %MON dynstat_vvel_max             =   5.4601157204558E-01
(PID.TID 0000.0001) %MON dynstat_vvel_min             =  -3.8651506379529E-01
(PID.TID 0000.0001) %MON dynstat_vvel_mean            =   4.8584224236651E-04
(PID.TID 0000.0001) %MON dynstat_vvel_sd              =   5.7716251745029E-03
(PID.TID 0000.0001) %MON dynstat_vvel_del2            =   8.0945313481031E-05
(PID.TID 0000.0001) %MON dynstat_wvel_max             =   1.8374132491292E-04
(PID.TID 0000.0001) %MON dynstat_wvel_min             =  -2.3356503745142E-04
(PID.TID 0000.0001) %MON dynstat_wvel_mean            =  -2.2754433796881E-07
(PID.TID 0000.0001) %MON dynstat_wvel_sd              =   7.1830686019253E-06
(PID.TID 0000.0001) %MON dynstat_wvel_del2            =   7.8752764166528E-08
(PID.TID 0000.0001) %MON dynstat_theta_max            =   2.1383374161795E+01
(PID.TID 0000.0001) %MON dynstat_theta_min            =   1.6195359594701E+01
(PID.TID 0000.0001) %MON dynstat_theta_mean           =   1.9997900763071E+01
(PID.TID 0000.0001) %MON dynstat_theta_sd             =   2.2921253871321E-02
(PID.TID 0000.0001) %MON dynstat_theta_del2           =   3.3667052300422E-04
(PID.TID 0000.0001) %MON dynstat_salt_max             =   3.5078458322201E+01
(PID.TID 0000.0001) %MON dynstat_salt_min             =   3.0009154431762E+01
(PID.TID 0000.0001) %MON dynstat_salt_mean            =   3.4999680209143E+01
(PID.TID 0000.0001) %MON dynstat_salt_sd              =   2.4399975343428E-02
(PID.TID 0000.0001) %MON dynstat_salt_del2            =   6.5056330938101E-04
(PID.TID 0000.0001) %MON dynstat_sst_max              =   2.1383374161795E+01
(PID.TID 0000.0001) %MON dynstat_sst_min              =   1.6195359594701E+01
(PID.TID 0000.0001) %MON dynstat_sst_mean             =   2.0043015122458E+01
(PID.TID 0000.0001) %MON dynstat_sst_sd               =   1.6558156888266E-01
(PID.TID 0000.0001) %MON dynstat_sst_del2             =   3.8904341715700E-03
(PID.TID 0000.0001) %MON dynstat_sss_max              =   3.5078458322201E+01
(PID.TID 0000.0001) %MON dynstat_sss_min              =   3.0009154431762E+01
(PID.TID 0000.0001) %MON dynstat_sss_mean             =   3.4984216859170E+01
(PID.TID 0000.0001) %MON dynstat_sss_sd               =   2.0833221374584E-01
(PID.TID 0000.0001) %MON dynstat_sss_del2             =   8.1699221762857E-03
(PID.TID 0000.0001) %MON forcing_qnet_max             =   4.0523128426316E+03
(PID.TID 0000.0001) %MON forcing_qnet_min             =  -7.4055839843750E+03
(PID.TID 0000.0001) %MON forcing_qnet_mean            =  -1.7690409652350E+01
(PID.TID 0000.0001) %MON forcing_qnet_sd              =   5.4559021737037E+02
(PID.TID 0000.0001) %MON forcing_qnet_del2            =   9.7959746584268E+00
(PID.TID 0000.0001) %MON forcing_qsw_max              =   0.0000000000000E+00
(PID.TID 0000.0001) %MON forcing_qsw_min              =  -1.1053787637360E+02
(PID.TID 0000.0001) %MON forcing_qsw_mean             =  -1.3649319829900E+01
(PID.TID 0000.0001) %MON forcing_qsw_sd               =   2.4590926759518E+01
(PID.TID 0000.0001) %MON forcing_qsw_del2             =   1.3810486945269E-01
(PID.TID 0000.0001) %MON forcing_empmr_max            =   6.8881628103554E-03
(PID.TID 0000.0001) %MON forcing_empmr_min            =  -9.9015563726425E-02
(PID.TID 0000.0001) %MON forcing_empmr_mean           =  -4.3930535906736E-04
(PID.TID 0000.0001) %MON forcing_empmr_sd             =   4.3816962601410E-03
(PID.TID 0000.0001) %MON forcing_empmr_del2           =   1.7277773188181E-04
(PID.TID 0000.0001) %MON forcing_fu_max               =   6.5459433070819E-01
(PID.TID 0000.0001) %MON forcing_fu_min               =  -5.7413120661072E-01
(PID.TID 0000.0001) %MON forcing_fu_mean              =  -1.3405995583964E-03
(PID.TID 0000.0001) %MON forcing_fu_sd                =   8.9279522474593E-02
(PID.TID 0000.0001) %MON forcing_fu_del2              =   7.5841720983013E-04
(PID.TID 0000.0001) %MON forcing_fv_max               =   4.4984202490979E-01
(PID.TID 0000.0001) %MON forcing_fv_min               =  -4.0923164283070E-01
(PID.TID 0000.0001) %MON forcing_fv_mean              =  -5.5726744867863E-03
(PID.TID 0000.0001) %MON forcing_fv_sd                =   7.9008463008978E-02
(PID.TID 0000.0001) %MON forcing_fv_del2              =   6.5708678579821E-04
(PID.TID 0000.0001) %MON trAdv_CFL_u_max              =   1.4940694909281E-03
(PID.TID 0000.0001) %MON trAdv_CFL_v_max              =   1.9338635145858E-03
(PID.TID 0000.0001) %MON trAdv_CFL_w_max              =   2.2531469305490E-03
(PID.TID 0000.0001) %MON advcfl_uvel_max              =   1.4751916534745E-03
(PID.TID 0000.0001) %MON advcfl_vvel_max              =   1.6362707765150E-03
(PID.TID 0000.0001) %MON advcfl_wvel_max              =   3.4440196078757E-03
(PID.TID 0000.0001) %MON advcfl_W_hf_max              =   2.2531469305490E-03
(PID.TID 0000.0001) %MON pe_b_mean                    =   1.7033980533146E-05
(PID.TID 0000.0001) %MON ke_max                       =   1.0306687320390E-01
(PID.TID 0000.0001) %MON ke_mean                      =   3.0355921136141E-05
(PID.TID 0000.0001) %MON ke_vol                       =   1.3398140876665E+18
(PID.TID 0000.0001) %MON vort_r_min                   =  -2.6743618566692E-06
(PID.TID 0000.0001) %MON vort_r_max                   =   2.7807047637972E-06
(PID.TID 0000.0001) %MON vort_a_mean                  =  -2.0549865324846E-05
(PID.TID 0000.0001) %MON vort_a_sd                    =   7.5259364099532E-05
(PID.TID 0000.0001) %MON vort_p_mean                  =  -2.4783313137519E-05
(PID.TID 0000.0001) %MON vort_p_sd                    =   1.2810543522516E-04
(PID.TID 0000.0001) %MON surfExpan_theta_mean         =  -1.9783395149013E-07
(PID.TID 0000.0001) %MON surfExpan_salt_mean          =   8.0777368678462E-07
(PID.TID 0000.0001) // =======================================================
(PID.TID 0000.0001) // End MONITOR dynamic field statistics
(PID.TID 0000.0001) // =======================================================
(PID.TID 0000.0001) // =======================================================
(PID.TID 0000.0001) // Begin MONITOR SEAICE statistics
(PID.TID 0000.0001) // =======================================================
(PID.TID 0000.0001) %MON seaice_tsnumber              =                    47
(PID.TID 0000.0001) %MON seaice_time_sec              =   4.2300000000000E+04
(PID.TID 0000.0001) %MON seaice_uice_max              =   2.6451579272290E-01
(PID.TID 0000.0001) %MON seaice_uice_min              =  -5.4714626732527E-01
(PID.TID 0000.0001) %MON seaice_uice_mean             =  -5.9355444337933E-03
(PID.TID 0000.0001) %MON seaice_uice_sd               =   4.0754170316361E-02
(PID.TID 0000.0001) %MON seaice_uice_del2             =   8.1750157688472E-04
(PID.TID 0000.0001) %MON seaice_vice_max              =   5.9228935317173E-01
(PID.TID 0000.0001) %MON seaice_vice_min              =  -3.8482793934334E-01
(PID.TID 0000.0001) %MON seaice_vice_mean             =  -9.0186413665009E-03
(PID.TID 0000.0001) %MON seaice_vice_sd               =   4.3699722517864E-02
(PID.TID 0000.0001) %MON seaice_vice_del2             =   8.9668762841381E-04
(PID.TID 0000.0001) %MON seaice_area_max              =   9.9174650400937E-01
(PID.TID 0000.0001) %MON seaice_area_min              =   0.0000000000000E+00
(PID.TID 0000.0001) %MON seaice_area_mean             =   6.4366532838140E-02
(PID.TID 0000.0001) %MON seaice_area_sd               =   2.2418899600844E-01
(PID.TID 0000.0001) %MON seaice_area_del2             =   1.5893391339671E-03
(PID.TID 0000.0001) %MON seaice_heff_max              =   8.3150801349815E+00
(PID.TID 0000.0001) %MON seaice_heff_min              =   0.0000000000000E+00
(PID.TID 0000.0001) %MON seaice_heff_mean             =   1.9762525984061E-01
(PID.TID 0000.0001) %MON seaice_heff_sd               =   9.5434047127604E-01
(PID.TID 0000.0001) %MON seaice_heff_del2             =   6.1543670126066E-03
(PID.TID 0000.0001) %MON seaice_hsnow_max             =   1.9987040915319E+00
(PID.TID 0000.0001) %MON seaice_hsnow_min             =   0.0000000000000E+00
(PID.TID 0000.0001) %MON seaice_hsnow_mean            =   2.1945590797883E-02
(PID.TID 0000.0001) %MON seaice_hsnow_sd              =   1.1687553700618E-01
(PID.TID 0000.0001) %MON seaice_hsnow_del2            =   1.4338281851694E-03
(PID.TID 0000.0001) // =======================================================
(PID.TID 0000.0001) // End MONITOR SEAICE statistics
(PID.TID 0000.0001) // =======================================================
 SEAICE_LSR: Residual Initial ipass,Uice,Vice=    1  2.96027030E-03  3.09933005E-03
 SEAICE_LSR (ipass=   1) iters,dU,Resid=     6  7.75767413E-05  4.85512938E-05
 SEAICE_LSR (ipass=   1) iters,dV,Resid=     6  4.55950556E-06  2.13216601E-05
 SEAICE_LSR: Residual Initial ipass,Uice,Vice=    2  2.00197356E-03  2.26552637E-03
 SEAICE_LSR (ipass=   2) iters,dU,Resid=     6  4.83146468E-05  3.62505071E-05
 SEAICE_LSR (ipass=   2) iters,dV,Resid=     6  2.26386033E-06  1.10071596E-05
 cg2d: Sum(rhs),rhsMax =  -4.17011638672221E+01  6.75978145562682E+01
(PID.TID 0000.0001)      cg2d_init_res =   1.52678382570065E-01
(PID.TID 0000.0001)      cg2d_iters(min,last) =      -1      11
(PID.TID 0000.0001)      cg2d_last_res =   2.92189502545598E-08
(PID.TID 0000.0001) // =======================================================
(PID.TID 0000.0001) // Begin MONITOR dynamic field statistics
(PID.TID 0000.0001) // =======================================================
(PID.TID 0000.0001) %MON time_tsnumber                =                    48
(PID.TID 0000.0001) %MON time_secondsf                =   4.3200000000000E+04
(PID.TID 0000.0001) %MON dynstat_eta_max              =   3.4421609471768E+00
(PID.TID 0000.0001) %MON dynstat_eta_min              =  -1.2042135729399E+00
(PID.TID 0000.0001) %MON dynstat_eta_mean             =   3.2755331932127E-02
(PID.TID 0000.0001) %MON dynstat_eta_sd               =   1.0822556239839E-01
(PID.TID 0000.0001) %MON dynstat_eta_del2             =   2.3911773218917E-03
(PID.TID 0000.0001) %MON dynstat_uvel_max             =   4.3714664280810E-01
(PID.TID 0000.0001) %MON dynstat_uvel_min             =  -4.4362249943421E-01
(PID.TID 0000.0001) %MON dynstat_uvel_mean            =  -1.6973924872222E-04
(PID.TID 0000.0001) %MON dynstat_uvel_sd              =   5.5636594900831E-03
(PID.TID 0000.0001) %MON dynstat_uvel_del2            =   7.5936064032111E-05
(PID.TID 0000.0001) %MON dynstat_vvel_max             =   4.5763970325505E-01
(PID.TID 0000.0001) %MON dynstat_vvel_min             =  -4.0859775673038E-01
(PID.TID 0000.0001) %MON dynstat_vvel_mean            =   5.3423730082962E-04
(PID.TID 0000.0001) %MON dynstat_vvel_sd              =   5.7245493758109E-03
(PID.TID 0000.0001) %MON dynstat_vvel_del2            =   7.8034538106304E-05
(PID.TID 0000.0001) %MON dynstat_wvel_max             =   1.7866971540279E-04
(PID.TID 0000.0001) %MON dynstat_wvel_min             =  -2.2916557645494E-04
(PID.TID 0000.0001) %MON dynstat_wvel_mean            =  -2.6159708448592E-07
(PID.TID 0000.0001) %MON dynstat_wvel_sd              =   7.1751081602254E-06
(PID.TID 0000.0001) %MON dynstat_wvel_del2            =   7.9569743110406E-08
(PID.TID 0000.0001) %MON dynstat_theta_max            =   2.1405345267992E+01
(PID.TID 0000.0001) %MON dynstat_theta_min            =   1.6196018977660E+01
(PID.TID 0000.0001) %MON dynstat_theta_mean           =   1.9997901771975E+01
(PID.TID 0000.0001) %MON dynstat_theta_sd             =   2.3052701757617E-02
(PID.TID 0000.0001) %MON dynstat_theta_del2           =   3.3808449735274E-04
(PID.TID 0000.0001) %MON dynstat_salt_max             =   3.5078458333521E+01
(PID.TID 0000.0001) %MON dynstat_salt_min             =   2.9951038556240E+01
(PID.TID 0000.0001) %MON dynstat_salt_mean            =   3.4999676503673E+01
(PID.TID 0000.0001) %MON dynstat_salt_sd              =   2.4688787810745E-02
(PID.TID 0000.0001) %MON dynstat_salt_del2            =   6.5804871125880E-04
(PID.TID 0000.0001) %MON dynstat_sst_max              =   2.1405345267992E+01
(PID.TID 0000.0001) %MON dynstat_sst_min              =   1.6196018977660E+01
(PID.TID 0000.0001) %MON dynstat_sst_mean             =   2.0043871951452E+01
(PID.TID 0000.0001) %MON dynstat_sst_sd               =   1.6660309334349E-01
(PID.TID 0000.0001) %MON dynstat_sst_del2             =   3.9086765241713E-03
(PID.TID 0000.0001) %MON dynstat_sss_max              =   3.5078458333521E+01
(PID.TID 0000.0001) %MON dynstat_sss_min              =   2.9951038556240E+01
(PID.TID 0000.0001) %MON dynstat_sss_mean             =   3.4984006384763E+01
(PID.TID 0000.0001) %MON dynstat_sss_sd               =   2.1079256016103E-01
(PID.TID 0000.0001) %MON dynstat_sss_del2             =   8.2639433518535E-03
(PID.TID 0000.0001) %MON forcing_qnet_max             =   4.0029081086130E+03
(PID.TID 0000.0001) %MON forcing_qnet_min             =  -8.9471679687500E+03
(PID.TID 0000.0001) %MON forcing_qnet_mean            =  -1.6701427687914E+01
(PID.TID 0000.0001) %MON forcing_qnet_sd              =   5.4490110826411E+02
(PID.TID 0000.0001) %MON forcing_qnet_del2            =   1.0431286824351E+01
(PID.TID 0000.0001) %MON forcing_qsw_max              =   0.0000000000000E+00
(PID.TID 0000.0001) %MON forcing_qsw_min              =  -1.1012780418790E+02
(PID.TID 0000.0001) %MON forcing_qsw_mean             =  -1.3638253632660E+01
(PID.TID 0000.0001) %MON forcing_qsw_sd               =   2.4341192901231E+01
(PID.TID 0000.0001) %MON forcing_qsw_del2             =   1.3709114916322E-01
(PID.TID 0000.0001) %MON forcing_empmr_max            =   6.8172137252986E-03
(PID.TID 0000.0001) %MON forcing_empmr_min            =  -9.7996070981026E-02
(PID.TID 0000.0001) %MON forcing_empmr_mean           =  -4.3587400809593E-04
(PID.TID 0000.0001) %MON forcing_empmr_sd             =   4.3374519847979E-03
(PID.TID 0000.0001) %MON forcing_empmr_del2           =   1.7101253084423E-04
(PID.TID 0000.0001) %MON forcing_fu_max               =   6.5360321689020E-01
(PID.TID 0000.0001) %MON forcing_fu_min               =  -5.8194696931900E-01
(PID.TID 0000.0001) %MON forcing_fu_mean              =  -1.3568889799775E-03
(PID.TID 0000.0001) %MON forcing_fu_sd                =   8.9529312811847E-02
(PID.TID 0000.0001) %MON forcing_fu_del2              =   7.6167081405671E-04
(PID.TID 0000.0001) %MON forcing_fv_max               =   4.4724216288237E-01
(PID.TID 0000.0001) %MON forcing_fv_min               =  -4.1059641061488E-01
(PID.TID 0000.0001) %MON forcing_fv_mean              =  -5.7190030264366E-03
(PID.TID 0000.0001) %MON forcing_fv_sd                =   7.8863447114152E-02
(PID.TID 0000.0001) %MON forcing_fv_del2              =   6.5603451744923E-04
(PID.TID 0000.0001) %MON trAdv_CFL_u_max              =   1.4280972049196E-03
(PID.TID 0000.0001) %MON trAdv_CFL_v_max              =   1.7826728075794E-03
(PID.TID 0000.0001) %MON trAdv_CFL_w_max              =   2.2345016343823E-03
(PID.TID 0000.0001) %MON advcfl_uvel_max              =   1.4100564124469E-03
(PID.TID 0000.0001) %MON advcfl_vvel_max              =   1.3714406634347E-03
(PID.TID 0000.0001) %MON advcfl_wvel_max              =   3.4085589906444E-03
(PID.TID 0000.0001) %MON advcfl_W_hf_max              =   2.2345016343823E-03
(PID.TID 0000.0001) %MON pe_b_mean                    =   1.7032744226499E-05
(PID.TID 0000.0001) %MON ke_max                       =   9.2765996269102E-02
(PID.TID 0000.0001) %MON ke_mean                      =   2.9570530697232E-05
(PID.TID 0000.0001) %MON ke_vol                       =   1.3398142266730E+18
(PID.TID 0000.0001) %MON vort_r_min                   =  -2.6722495644321E-06
(PID.TID 0000.0001) %MON vort_r_max                   =   2.2959163568883E-06
(PID.TID 0000.0001) %MON vort_a_mean                  =  -2.0549865324846E-05
(PID.TID 0000.0001) %MON vort_a_sd                    =   7.5259376015544E-05
(PID.TID 0000.0001) %MON vort_p_mean                  =  -2.4783310483946E-05
(PID.TID 0000.0001) %MON vort_p_sd                    =   1.2810539210736E-04
(PID.TID 0000.0001) %MON surfExpan_theta_mean         =  -1.4313250988170E-07
(PID.TID 0000.0001) %MON surfExpan_salt_mean          =   8.0785935871906E-07
(PID.TID 0000.0001) // =======================================================
(PID.TID 0000.0001) // End MONITOR dynamic field statistics
(PID.TID 0000.0001) // =======================================================
(PID.TID 0000.0001) // =======================================================
(PID.TID 0000.0001) // Begin MONITOR SEAICE statistics
(PID.TID 0000.0001) // =======================================================
(PID.TID 0000.0001) %MON seaice_tsnumber              =                    48
(PID.TID 0000.0001) %MON seaice_time_sec              =   4.3200000000000E+04
(PID.TID 0000.0001) %MON seaice_uice_max              =   2.7276785377371E-01
(PID.TID 0000.0001) %MON seaice_uice_min              =  -4.7489379224845E-01
(PID.TID 0000.0001) %MON seaice_uice_mean             =  -5.9041694709157E-03
(PID.TID 0000.0001) %MON seaice_uice_sd               =   3.9971469056943E-02
(PID.TID 0000.0001) %MON seaice_uice_del2             =   8.1855942673315E-04
(PID.TID 0000.0001) %MON seaice_vice_max              =   5.0387019154404E-01
(PID.TID 0000.0001) %MON seaice_vice_min              =  -3.7684030941930E-01
(PID.TID 0000.0001) %MON seaice_vice_mean             =  -9.2346594447181E-03
(PID.TID 0000.0001) %MON seaice_vice_sd               =   4.2828457179378E-02
(PID.TID 0000.0001) %MON seaice_vice_del2             =   8.5571695611717E-04
(PID.TID 0000.0001) %MON seaice_area_max              =   9.9145163899994E-01
(PID.TID 0000.0001) %MON seaice_area_min              =   0.0000000000000E+00
(PID.TID 0000.0001) %MON seaice_area_mean             =   6.4273373407173E-02
(PID.TID 0000.0001) %MON seaice_area_sd               =   2.2393777297804E-01
(PID.TID 0000.0001) %MON seaice_area_del2             =   1.5849081067392E-03
(PID.TID 0000.0001) %MON seaice_heff_max              =   8.3124725273409E+00
(PID.TID 0000.0001) %MON seaice_heff_min              =   0.0000000000000E+00
(PID.TID 0000.0001) %MON seaice_heff_mean             =   1.9745202176924E-01
(PID.TID 0000.0001) %MON seaice_heff_sd               =   9.5385148436836E-01
(PID.TID 0000.0001) %MON seaice_heff_del2             =   6.1527073380378E-03
(PID.TID 0000.0001) %MON seaice_hsnow_max             =   1.9979786281088E+00
(PID.TID 0000.0001) %MON seaice_hsnow_min             =   0.0000000000000E+00
(PID.TID 0000.0001) %MON seaice_hsnow_mean            =   2.1926824284778E-02
(PID.TID 0000.0001) %MON seaice_hsnow_sd              =   1.1681552020992E-01
(PID.TID 0000.0001) %MON seaice_hsnow_del2            =   1.4331360400217E-03
(PID.TID 0000.0001) // =======================================================
(PID.TID 0000.0001) // End MONITOR SEAICE statistics
(PID.TID 0000.0001) // =======================================================
 Computing Diagnostic #     86  oceQnet      Counter:      48   Parms: SM      U1      
 Computing Diagnostic #     87  oceQsw       Counter:      48   Parms: SM      U1      
 Computing Diagnostic #     84  oceFWflx     Counter:      48   Parms: SM      U1      
 Computing Diagnostic #     85  oceSflux     Counter:      48   Parms: SM      U1      
 Computing Diagnostic #     80  oceTAUX      Counter:      48   Parms: UU      U1      
           Vector  Mate for  oceTAUX      Diagnostic #     81  oceTAUY  exists 
 Computing Diagnostic #     81  oceTAUY      Counter:      48   Parms: VV      U1      
           Vector  Mate for  oceTAUY      Diagnostic #     80  oceTAUX  exists 
 Computing Diagnostic #     26  THETA        Counter:      48   Parms: SMR     MR      
 Computing Diagnostic #     27  SALT         Counter:      48   Parms: SMR     MR      
 Computing Diagnostic #     30  UVEL         Counter:      48   Parms: UUR     MR      
           Vector  Mate for  UVEL         Diagnostic #     31  VVEL     exists 
 Computing Diagnostic #     31  VVEL         Counter:      48   Parms: VVR     MR      
           Vector  Mate for  VVEL         Diagnostic #     30  UVEL     exists 
 Computing Diagnostic #    211  SIarea       Counter:      48   Parms: SM      M1      
 Computing Diagnostic #    214  SIheff       Counter:      48   Parms: SM      M1      
 Computing Diagnostic #    216  SIhsnow      Counter:      48   Parms: SM      M1      
 Computing Diagnostic #     83  sIceLoad     Counter:      48   Parms: SM      U1      
 Computing Diagnostic #    220  SIuice       Counter:      48   Parms: UU      M1      
           Vector  Mate for  SIuice       Diagnostic #    221  SIvice   exists 
 Computing Diagnostic #    221  SIvice       Counter:      48   Parms: VV      M1      
           Vector  Mate for  SIvice       Diagnostic #    220  SIuice   exists 
 Computing Diagnostic #    222  SItaux       Counter:      48   Parms: UU      U1      
           Vector  Mate for  SItaux       Diagnostic #    223  SItauy   exists 
 Computing Diagnostic #    223  SItauy       Counter:      48   Parms: VV      U1      
           Vector  Mate for  SItauy       Diagnostic #    222  SItaux   exists 
 Compute Stats, Diag. #    211  SIarea    vol(   0 ): 1.456E+15  Parms: SM      M1      
 Compute Stats, Diag. #    214  SIheff    vol(   0 ): 1.456E+15  Parms: SM      M1      
 Compute Stats, Diag. #    216  SIhsnow   vol(   0 ): 1.456E+15  Parms: SM      M1      
 Compute Stats, Diag. #     83  sIceLoad  vol(   0 ): 1.456E+15  Parms: SM      U1      
 Compute Stats, Diag. #    220  SIuice    vol(   0 ): 1.383E+15  Parms: UU      M1      
 Compute Stats, Diag. #    221  SIvice    vol(   0 ): 1.391E+15  Parms: VV      M1      
 Compute Stats, Diag. #    222  SItaux    vol(   0 ): 1.383E+15  Parms: UU      U1      
 Compute Stats, Diag. #    223  SItauy    vol(   0 ): 1.391E+15  Parms: VV      U1      
 Compute Stats, Diag. #    282  SIareaN   vol(   0 ): 7.278E+15  Parms: SM      MX      
 Compute Stats, Diag. #    281  SIheffN   vol(   0 ): 7.278E+15  Parms: SM      MX      
 Compute Stats, Diag. #    283  SIhsnowN  vol(   0 ): 7.278E+15  Parms: SM      MX      
 Compute Stats, Diag. #    287  SIqSnow   vol(   0 ): 7.278E+15  Parms: SM      MX      
 Compute Stats, Diag. #    286  SIqIce    vol(   0 ): 2.911E+16  Parms: SM      MX      
 Compute Stats, Diag. #    288  SImeltPd  vol(   0 ): 7.278E+15  Parms: SM      MX      
 Compute Stats, Diag. #    285  SItIces   vol(   0 ): 7.278E+15  Parms: SM      MX      
 Compute Stats, Diag. #    289  SIiceAge  vol(   0 ): 7.278E+15  Parms: SM      MX      
 Compute Stats, Diag. #    290  SI_dArea  vol(   0 ): 7.278E+15  Parms: SM      MX      
 Compute Stats, Diag. #    291  SI_dHeff  vol(   0 ): 7.278E+15  Parms: SM      MX      
 Compute Stats, Diag. #    292  SI_dHsnw  vol(   0 ): 7.278E+15  Parms: SM      MX      
 Compute Stats, Diag. #    295  SI_dQSnw  vol(   0 ): 7.278E+15  Parms: SM      MX      
 Compute Stats, Diag. #    294  SI_dQIce  vol(   0 ): 2.911E+16  Parms: SM      MX      
 SEAICE_LSR: Residual Initial ipass,Uice,Vice=    1  2.98246964E-03  3.14276968E-03
 SEAICE_LSR (ipass=   1) iters,dU,Resid=     6  8.11514987E-05  4.71596826E-05
 SEAICE_LSR (ipass=   1) iters,dV,Resid=     6  4.81737590E-06  2.23682823E-05
 SEAICE_LSR: Residual Initial ipass,Uice,Vice=    2  1.95142707E-03  2.30098564E-03
 SEAICE_LSR (ipass=   2) iters,dU,Resid=     6  5.01235841E-05  3.41840288E-05
 SEAICE_LSR (ipass=   2) iters,dV,Resid=     6  2.24424404E-06  1.08374358E-05
 cg2d: Sum(rhs),rhsMax =  -4.24528893547566E+01  6.71672361661630E+01
(PID.TID 0000.0001)      cg2d_init_res =   1.48855181703800E-01
(PID.TID 0000.0001)      cg2d_iters(min,last) =      -1      11
(PID.TID 0000.0001)      cg2d_last_res =   2.83096422511554E-08
(PID.TID 0000.0001) // =======================================================
(PID.TID 0000.0001) // Begin MONITOR dynamic field statistics
(PID.TID 0000.0001) // =======================================================
(PID.TID 0000.0001) %MON time_tsnumber                =                    49
(PID.TID 0000.0001) %MON time_secondsf                =   4.4100000000000E+04
(PID.TID 0000.0001) %MON dynstat_eta_max              =   3.4197154672555E+00
(PID.TID 0000.0001) %MON dynstat_eta_min              =  -1.1708558132196E+00
(PID.TID 0000.0001) %MON dynstat_eta_mean             =   3.3133392491773E-02
(PID.TID 0000.0001) %MON dynstat_eta_sd               =   1.0748628231180E-01
(PID.TID 0000.0001) %MON dynstat_eta_del2             =   2.3856524493655E-03
(PID.TID 0000.0001) %MON dynstat_uvel_max             =   4.2810110067705E-01
(PID.TID 0000.0001) %MON dynstat_uvel_min             =  -4.4220203559279E-01
(PID.TID 0000.0001) %MON dynstat_uvel_mean            =  -1.6761015598874E-04
(PID.TID 0000.0001) %MON dynstat_uvel_sd              =   5.4662656600388E-03
(PID.TID 0000.0001) %MON dynstat_uvel_del2            =   7.7047379516581E-05
(PID.TID 0000.0001) %MON dynstat_vvel_max             =   4.0943519886433E-01
(PID.TID 0000.0001) %MON dynstat_vvel_min             =  -4.4090792065119E-01
(PID.TID 0000.0001) %MON dynstat_vvel_mean            =   5.8160359551665E-04
(PID.TID 0000.0001) %MON dynstat_vvel_sd              =   5.7021586325781E-03
(PID.TID 0000.0001) %MON dynstat_vvel_del2            =   7.6008834938968E-05
(PID.TID 0000.0001) %MON dynstat_wvel_max             =   1.7328961960883E-04
(PID.TID 0000.0001) %MON dynstat_wvel_min             =  -2.2297086163387E-04
(PID.TID 0000.0001) %MON dynstat_wvel_mean            =  -2.9443563377995E-07
(PID.TID 0000.0001) %MON dynstat_wvel_sd              =   7.1852444979241E-06
(PID.TID 0000.0001) %MON dynstat_wvel_del2            =   8.0428392822425E-08
(PID.TID 0000.0001) %MON dynstat_theta_max            =   2.1427055263802E+01
(PID.TID 0000.0001) %MON dynstat_theta_min            =   1.6195816537632E+01
(PID.TID 0000.0001) %MON dynstat_theta_mean           =   1.9997902744652E+01
(PID.TID 0000.0001) %MON dynstat_theta_sd             =   2.3182423836509E-02
(PID.TID 0000.0001) %MON dynstat_theta_del2           =   3.3938974869811E-04
(PID.TID 0000.0001) %MON dynstat_salt_max             =   3.5078458273904E+01
(PID.TID 0000.0001) %MON dynstat_salt_min             =   2.9894191890357E+01
(PID.TID 0000.0001) %MON dynstat_salt_mean            =   3.4999672801535E+01
(PID.TID 0000.0001) %MON dynstat_salt_sd              =   2.4971439028344E-02
(PID.TID 0000.0001) %MON dynstat_salt_del2            =   6.6538130771713E-04
(PID.TID 0000.0001) %MON dynstat_sst_max              =   2.1427055263802E+01
(PID.TID 0000.0001) %MON dynstat_sst_min              =   1.6195816537632E+01
(PID.TID 0000.0001) %MON dynstat_sst_mean             =   2.0044709090444E+01
(PID.TID 0000.0001) %MON dynstat_sst_sd               =   1.6761506932593E-01
(PID.TID 0000.0001) %MON dynstat_sst_del2             =   3.9253701885563E-03
(PID.TID 0000.0001) %MON dynstat_sss_max              =   3.5078458273904E+01
(PID.TID 0000.0001) %MON dynstat_sss_min              =   2.9894191890357E+01
(PID.TID 0000.0001) %MON dynstat_sss_mean             =   3.4983794486531E+01
(PID.TID 0000.0001) %MON dynstat_sss_sd               =   2.1319908896246E-01
(PID.TID 0000.0001) %MON dynstat_sss_del2             =   8.3560413262079E-03
(PID.TID 0000.0001) %MON forcing_qnet_max             =   3.9541834730717E+03
(PID.TID 0000.0001) %MON forcing_qnet_min             =  -4.7436938947566E+03
(PID.TID 0000.0001) %MON forcing_qnet_mean            =  -1.6056781136758E+01
(PID.TID 0000.0001) %MON forcing_qnet_sd              =   5.2891011105662E+02
(PID.TID 0000.0001) %MON forcing_qnet_del2            =   7.9815072875212E+00
(PID.TID 0000.0001) %MON forcing_qsw_max              =   0.0000000000000E+00
(PID.TID 0000.0001) %MON forcing_qsw_min              =  -1.0831979767287E+02
(PID.TID 0000.0001) %MON forcing_qsw_mean             =  -1.3755716434281E+01
(PID.TID 0000.0001) %MON forcing_qsw_sd               =   2.3877152310276E+01
(PID.TID 0000.0001) %MON forcing_qsw_del2             =   1.3860191536369E-01
(PID.TID 0000.0001) %MON forcing_empmr_max            =   6.7469533532858E-03
(PID.TID 0000.0001) %MON forcing_empmr_min            =  -9.6985809504986E-02
(PID.TID 0000.0001) %MON forcing_empmr_mean           =  -4.3476964359229E-04
(PID.TID 0000.0001) %MON forcing_empmr_sd             =   4.2934146468230E-03
(PID.TID 0000.0001) %MON forcing_empmr_del2           =   1.6927014626100E-04
(PID.TID 0000.0001) %MON forcing_fu_max               =   6.5535949729585E-01
(PID.TID 0000.0001) %MON forcing_fu_min               =  -5.9007077628139E-01
(PID.TID 0000.0001) %MON forcing_fu_mean              =  -1.3788087104202E-03
(PID.TID 0000.0001) %MON forcing_fu_sd                =   8.9716633440897E-02
(PID.TID 0000.0001) %MON forcing_fu_del2              =   7.6379231978290E-04
(PID.TID 0000.0001) %MON forcing_fv_max               =   4.4505451077497E-01
(PID.TID 0000.0001) %MON forcing_fv_min               =  -4.1189554855216E-01
(PID.TID 0000.0001) %MON forcing_fv_mean              =  -5.8482323890155E-03
(PID.TID 0000.0001) %MON forcing_fv_sd                =   7.8675803082177E-02
(PID.TID 0000.0001) %MON forcing_fv_del2              =   6.5463148912807E-04
(PID.TID 0000.0001) %MON trAdv_CFL_u_max              =   1.3463545669962E-03
(PID.TID 0000.0001) %MON trAdv_CFL_v_max              =   1.5871364575361E-03
(PID.TID 0000.0001) %MON trAdv_CFL_w_max              =   2.3011790505662E-03
(PID.TID 0000.0001) %MON advcfl_uvel_max              =   1.3293495819731E-03
(PID.TID 0000.0001) %MON advcfl_vvel_max              =   1.2890852363664E-03
(PID.TID 0000.0001) %MON advcfl_wvel_max              =   3.3734194610430E-03
(PID.TID 0000.0001) %MON advcfl_W_hf_max              =   2.3011790505662E-03
(PID.TID 0000.0001) %MON pe_b_mean                    =   1.6853483225885E-05
(PID.TID 0000.0001) %MON ke_max                       =   1.0194899243198E-01
(PID.TID 0000.0001) %MON ke_mean                      =   2.8982519208562E-05
(PID.TID 0000.0001) %MON ke_vol                       =   1.3398143645936E+18
(PID.TID 0000.0001) %MON vort_r_min                   =  -2.6583622002020E-06
(PID.TID 0000.0001) %MON vort_r_max                   =   1.7777200696755E-06
(PID.TID 0000.0001) %MON vort_a_mean                  =  -2.0549865324846E-05
(PID.TID 0000.0001) %MON vort_a_sd                    =   7.5259387535453E-05
(PID.TID 0000.0001) %MON vort_p_mean                  =  -2.4783307749704E-05
(PID.TID 0000.0001) %MON vort_p_sd                    =   1.2810534777428E-04
(PID.TID 0000.0001) %MON surfExpan_theta_mean         =  -9.2524557009532E-08
(PID.TID 0000.0001) %MON surfExpan_salt_mean          =   8.0893030777735E-07
(PID.TID 0000.0001) // =======================================================
(PID.TID 0000.0001) // End MONITOR dynamic field statistics
(PID.TID 0000.0001) // =======================================================
(PID.TID 0000.0001) // =======================================================
(PID.TID 0000.0001) // Begin MONITOR SEAICE statistics
(PID.TID 0000.0001) // =======================================================
(PID.TID 0000.0001) %MON seaice_tsnumber              =                    49
(PID.TID 0000.0001) %MON seaice_time_sec              =   4.4100000000000E+04
(PID.TID 0000.0001) %MON seaice_uice_max              =   2.7915558244696E-01
(PID.TID 0000.0001) %MON seaice_uice_min              =  -4.4113121450780E-01
(PID.TID 0000.0001) %MON seaice_uice_mean             =  -5.8826731230565E-03
(PID.TID 0000.0001) %MON seaice_uice_sd               =   3.9239060504122E-02
(PID.TID 0000.0001) %MON seaice_uice_del2             =   8.1982701219188E-04
(PID.TID 0000.0001) %MON seaice_vice_max              =   4.1527878624850E-01
(PID.TID 0000.0001) %MON seaice_vice_min              =  -4.0720042868394E-01
(PID.TID 0000.0001) %MON seaice_vice_mean             =  -9.4778116404204E-03
(PID.TID 0000.0001) %MON seaice_vice_sd               =   4.2126802345801E-02
(PID.TID 0000.0001) %MON seaice_vice_del2             =   8.2483031357401E-04
(PID.TID 0000.0001) %MON seaice_area_max              =   9.9115278769917E-01
(PID.TID 0000.0001) %MON seaice_area_min              =   0.0000000000000E+00
(PID.TID 0000.0001) %MON seaice_area_mean             =   6.4180316165193E-02
(PID.TID 0000.0001) %MON seaice_area_sd               =   2.2368696971043E-01
(PID.TID 0000.0001) %MON seaice_area_del2             =   1.5805213652010E-03
(PID.TID 0000.0001) %MON seaice_heff_max              =   8.3098646928769E+00
(PID.TID 0000.0001) %MON seaice_heff_min              =   0.0000000000000E+00
(PID.TID 0000.0001) %MON seaice_heff_mean             =   1.9727889927321E-01
(PID.TID 0000.0001) %MON seaice_heff_sd               =   9.5336236599291E-01
(PID.TID 0000.0001) %MON seaice_heff_del2             =   6.1510474258199E-03
(PID.TID 0000.0001) %MON seaice_hsnow_max             =   1.9972523609192E+00
(PID.TID 0000.0001) %MON seaice_hsnow_min             =   0.0000000000000E+00
(PID.TID 0000.0001) %MON seaice_hsnow_mean            =   2.1908065294874E-02
(PID.TID 0000.0001) %MON seaice_hsnow_sd              =   1.1675546542116E-01
(PID.TID 0000.0001) %MON seaice_hsnow_del2            =   1.4324466219700E-03
(PID.TID 0000.0001) // =======================================================
(PID.TID 0000.0001) // End MONITOR SEAICE statistics
(PID.TID 0000.0001) // =======================================================
 Computing Diagnostic #    211  SIarea       Counter:       1   Parms: SM      M1      
 Computing Diagnostic #    214  SIheff       Counter:       1   Parms: SM      M1      
 Computing Diagnostic #    216  SIhsnow      Counter:       1   Parms: SM      M1      
 Computing Diagnostic #     83  sIceLoad     Counter:       1   Parms: SM      U1      
 Computing Diagnostic #    220  SIuice       Counter:       1   Parms: UU      M1      
           Vector  Mate for  SIuice       Diagnostic #    221  SIvice   exists 
 Computing Diagnostic #    221  SIvice       Counter:       1   Parms: VV      M1      
           Vector  Mate for  SIvice       Diagnostic #    220  SIuice   exists 
 Computing Diagnostic #    222  SItaux       Counter:       1   Parms: UU      U1      
           Vector  Mate for  SItaux       Diagnostic #    223  SItauy   exists 
 Computing Diagnostic #    223  SItauy       Counter:       1   Parms: VV      U1      
           Vector  Mate for  SItauy       Diagnostic #    222  SItaux   exists 
 Computing Diagnostic #    284  CPLoWGHT     Counter:       1   Parms: SM      M1      
 Computing Diagnostic #    282  SIareaN      Counter:       1   Parms: SM      MX      
 Computing Diagnostic #    281  SIheffN      Counter:       1   Parms: SM      MX      
 Computing Diagnostic #    283  SIhsnowN     Counter:       1   Parms: SM      MX      
 Computing Diagnostic #    287  SIqSnow      Counter:       1   Parms: SM      MX      
 Computing Diagnostic #    288  SImeltPd     Counter:       1   Parms: SM      MX      
 Computing Diagnostic #    285  SItIces      Counter:       1   Parms: SM      MX      
 Computing Diagnostic #    289  SIiceAge     Counter:       1   Parms: SM      MX      
 Computing Diagnostic #    290  SI_dArea     Counter:       1   Parms: SM      MX      
 Computing Diagnostic #    291  SI_dHeff     Counter:       1   Parms: SM      MX      
 Computing Diagnostic #    292  SI_dHsnw     Counter:       1   Parms: SM      MX      
 Computing Diagnostic #    295  SI_dQSnw     Counter:       1   Parms: SM      MX      
 Computing Diagnostic #    286  SIqIce       Counter:       1   Parms: SM      MX      
 Computing Diagnostic #    294  SI_dQIce     Counter:       1   Parms: SM      MX      
 SEAICE_LSR: Residual Initial ipass,Uice,Vice=    1  2.82979236E-03  3.17967604E-03
 SEAICE_LSR (ipass=   1) iters,dU,Resid=     6  9.71763670E-05  4.78501651E-05
 SEAICE_LSR (ipass=   1) iters,dV,Resid=     6  4.90151839E-06  2.25649387E-05
 SEAICE_LSR: Residual Initial ipass,Uice,Vice=    2  1.82622152E-03  2.32567702E-03
 SEAICE_LSR (ipass=   2) iters,dU,Resid=     6  5.72507802E-05  3.18115161E-05
 SEAICE_LSR (ipass=   2) iters,dV,Resid=     6  2.18725014E-06  1.02346656E-05
 cg2d: Sum(rhs),rhsMax =  -4.34553346349340E+01  6.63598361947781E+01
(PID.TID 0000.0001)      cg2d_init_res =   1.49318262717052E-01
(PID.TID 0000.0001)      cg2d_iters(min,last) =      -1      10
(PID.TID 0000.0001)      cg2d_last_res =   9.67177423911323E-08
(PID.TID 0000.0001) // =======================================================
(PID.TID 0000.0001) // Begin MONITOR dynamic field statistics
(PID.TID 0000.0001) // =======================================================
(PID.TID 0000.0001) %MON time_tsnumber                =                    50
(PID.TID 0000.0001) %MON time_secondsf                =   4.5000000000000E+04
(PID.TID 0000.0001) %MON dynstat_eta_max              =   3.3420117134544E+00
(PID.TID 0000.0001) %MON dynstat_eta_min              =  -1.1152256706494E+00
(PID.TID 0000.0001) %MON dynstat_eta_mean             =   3.3508082587869E-02
(PID.TID 0000.0001) %MON dynstat_eta_sd               =   1.0612992666230E-01
(PID.TID 0000.0001) %MON dynstat_eta_del2             =   2.3572697397037E-03
(PID.TID 0000.0001) %MON dynstat_uvel_max             =   4.1739626894220E-01
(PID.TID 0000.0001) %MON dynstat_uvel_min             =  -4.3839475145837E-01
(PID.TID 0000.0001) %MON dynstat_uvel_mean            =  -1.6329481338437E-04
(PID.TID 0000.0001) %MON dynstat_uvel_sd              =   5.3830395989260E-03
(PID.TID 0000.0001) %MON dynstat_uvel_del2            =   7.8282566353481E-05
(PID.TID 0000.0001) %MON dynstat_vvel_max             =   4.5447863668246E-01
(PID.TID 0000.0001) %MON dynstat_vvel_min             =  -4.7183004025761E-01
(PID.TID 0000.0001) %MON dynstat_vvel_mean            =   6.2754466860381E-04
(PID.TID 0000.0001) %MON dynstat_vvel_sd              =   5.7009666540070E-03
(PID.TID 0000.0001) %MON dynstat_vvel_del2            =   7.4967060676008E-05
(PID.TID 0000.0001) %MON dynstat_wvel_max             =   1.6766601477594E-04
(PID.TID 0000.0001) %MON dynstat_wvel_min             =  -2.2682259841198E-04
(PID.TID 0000.0001) %MON dynstat_wvel_mean            =  -3.2206979329573E-07
(PID.TID 0000.0001) %MON dynstat_wvel_sd              =   7.2093726496340E-06
(PID.TID 0000.0001) %MON dynstat_wvel_del2            =   8.1284585843989E-08
(PID.TID 0000.0001) %MON dynstat_theta_max            =   2.1448508531551E+01
(PID.TID 0000.0001) %MON dynstat_theta_min            =   1.6194760108551E+01
(PID.TID 0000.0001) %MON dynstat_theta_mean           =   1.9997903695848E+01
(PID.TID 0000.0001) %MON dynstat_theta_sd             =   2.3309589179768E-02
(PID.TID 0000.0001) %MON dynstat_theta_del2           =   3.4060639087194E-04
(PID.TID 0000.0001) %MON dynstat_salt_max             =   3.5078457834872E+01
(PID.TID 0000.0001) %MON dynstat_salt_min             =   2.9838583456006E+01
(PID.TID 0000.0001) %MON dynstat_salt_mean            =   3.4999669153169E+01
(PID.TID 0000.0001) %MON dynstat_salt_sd              =   2.5247956712547E-02
(PID.TID 0000.0001) %MON dynstat_salt_del2            =   6.7259151792400E-04
(PID.TID 0000.0001) %MON dynstat_sst_max              =   2.1448508531551E+01
(PID.TID 0000.0001) %MON dynstat_sst_min              =   1.6194760108551E+01
(PID.TID 0000.0001) %MON dynstat_sst_mean             =   2.0045508432744E+01
(PID.TID 0000.0001) %MON dynstat_sst_sd               =   1.6860802428297E-01
(PID.TID 0000.0001) %MON dynstat_sst_del2             =   3.9404037507386E-03
(PID.TID 0000.0001) %MON dynstat_sss_max              =   3.5078457834872E+01
(PID.TID 0000.0001) %MON dynstat_sss_min              =   2.9838583456006E+01
(PID.TID 0000.0001) %MON dynstat_sss_mean             =   3.4983576731582E+01
(PID.TID 0000.0001) %MON dynstat_sss_sd               =   2.1555142600183E-01
(PID.TID 0000.0001) %MON dynstat_sss_del2             =   8.4465736360395E-03
(PID.TID 0000.0001) %MON forcing_qnet_max             =   3.9071184651303E+03
(PID.TID 0000.0001) %MON forcing_qnet_min             =  -4.6849833510463E+03
(PID.TID 0000.0001) %MON forcing_qnet_mean            =  -1.5657005787645E+01
(PID.TID 0000.0001) %MON forcing_qnet_sd              =   5.2500409445881E+02
(PID.TID 0000.0001) %MON forcing_qnet_del2            =   7.9123659539544E+00
(PID.TID 0000.0001) %MON forcing_qsw_max              =   0.0000000000000E+00
(PID.TID 0000.0001) %MON forcing_qsw_min              =  -1.0700935238564E+02
(PID.TID 0000.0001) %MON forcing_qsw_mean             =  -1.3868023309543E+01
(PID.TID 0000.0001) %MON forcing_qsw_sd               =   2.3759190709138E+01
(PID.TID 0000.0001) %MON forcing_qsw_del2             =   1.3865471438039E-01
(PID.TID 0000.0001) %MON forcing_empmr_max            =   6.6773816943169E-03
(PID.TID 0000.0001) %MON forcing_empmr_min            =  -9.5986455678940E-02
(PID.TID 0000.0001) %MON forcing_empmr_mean           =  -4.3089361051057E-04
(PID.TID 0000.0001) %MON forcing_empmr_sd             =   4.2501711376491E-03
(PID.TID 0000.0001) %MON forcing_empmr_del2           =   1.6755593720965E-04
(PID.TID 0000.0001) %MON forcing_fu_max               =   6.5407883686962E-01
(PID.TID 0000.0001) %MON forcing_fu_min               =  -5.9276497834337E-01
(PID.TID 0000.0001) %MON forcing_fu_mean              =  -1.3850501437208E-03
(PID.TID 0000.0001) %MON forcing_fu_sd                =   8.9819737013513E-02
(PID.TID 0000.0001) %MON forcing_fu_del2              =   7.6480414251002E-04
(PID.TID 0000.0001) %MON forcing_fv_max               =   4.3934169385351E-01
(PID.TID 0000.0001) %MON forcing_fv_min               =  -4.1380920463735E-01
(PID.TID 0000.0001) %MON forcing_fv_mean              =  -5.9580224628880E-03
(PID.TID 0000.0001) %MON forcing_fv_sd                =   7.8454215363028E-02
(PID.TID 0000.0001) %MON forcing_fv_del2              =   6.5292568108286E-04
(PID.TID 0000.0001) %MON trAdv_CFL_u_max              =   1.2503187419460E-03
(PID.TID 0000.0001) %MON trAdv_CFL_v_max              =   1.5699157242470E-03
(PID.TID 0000.0001) %MON trAdv_CFL_w_max              =   2.3601217520380E-03
(PID.TID 0000.0001) %MON advcfl_uvel_max              =   1.2471007112558E-03
(PID.TID 0000.0001) %MON advcfl_vvel_max              =   1.3794924302379E-03
(PID.TID 0000.0001) %MON advcfl_wvel_max              =   3.3386593279631E-03
(PID.TID 0000.0001) %MON advcfl_W_hf_max              =   2.3601217520380E-03
(PID.TID 0000.0001) %MON pe_b_mean                    =   1.6500762565729E-05
(PID.TID 0000.0001) %MON ke_max                       =   1.1116289859294E-01
(PID.TID 0000.0001) %MON ke_mean                      =   2.8586533021657E-05
(PID.TID 0000.0001) %MON ke_vol                       =   1.3398145021649E+18
(PID.TID 0000.0001) %MON vort_r_min                   =  -2.7442617465892E-06
(PID.TID 0000.0001) %MON vort_r_max                   =   1.7828725212438E-06
(PID.TID 0000.0001) %MON vort_a_mean                  =  -2.0549865324846E-05
(PID.TID 0000.0001) %MON vort_a_sd                    =   7.5259398620889E-05
(PID.TID 0000.0001) %MON vort_p_mean                  =  -2.4783304927488E-05
(PID.TID 0000.0001) %MON vort_p_sd                    =   1.2810530427080E-04
(PID.TID 0000.0001) %MON surfExpan_theta_mean         =  -4.6786299098385E-08
(PID.TID 0000.0001) %MON surfExpan_salt_mean          =   8.1095075631032E-07
(PID.TID 0000.0001) // =======================================================
(PID.TID 0000.0001) // End MONITOR dynamic field statistics
(PID.TID 0000.0001) // =======================================================
(PID.TID 0000.0001) // =======================================================
(PID.TID 0000.0001) // Begin MONITOR SEAICE statistics
(PID.TID 0000.0001) // =======================================================
(PID.TID 0000.0001) %MON seaice_tsnumber              =                    50
(PID.TID 0000.0001) %MON seaice_time_sec              =   4.5000000000000E+04
(PID.TID 0000.0001) %MON seaice_uice_max              =   2.8349709162980E-01
(PID.TID 0000.0001) %MON seaice_uice_min              =  -4.1563125172215E-01
(PID.TID 0000.0001) %MON seaice_uice_mean             =  -5.8210509478622E-03
(PID.TID 0000.0001) %MON seaice_uice_sd               =   3.8594200869114E-02
(PID.TID 0000.0001) %MON seaice_uice_del2             =   8.2499502570559E-04
(PID.TID 0000.0001) %MON seaice_vice_max              =   4.4127337287930E-01
(PID.TID 0000.0001) %MON seaice_vice_min              =  -4.3895770524759E-01
(PID.TID 0000.0001) %MON seaice_vice_mean             =  -9.7088500158783E-03
(PID.TID 0000.0001) %MON seaice_vice_sd               =   4.1625753962684E-02
(PID.TID 0000.0001) %MON seaice_vice_del2             =   8.0612790870308E-04
(PID.TID 0000.0001) %MON seaice_area_max              =   9.9085028894305E-01
(PID.TID 0000.0001) %MON seaice_area_min              =   0.0000000000000E+00
(PID.TID 0000.0001) %MON seaice_area_mean             =   6.4087374983831E-02
(PID.TID 0000.0001) %MON seaice_area_sd               =   2.2343660243742E-01
(PID.TID 0000.0001) %MON seaice_area_del2             =   1.5761775311732E-03
(PID.TID 0000.0001) %MON seaice_heff_max              =   8.3072570592103E+00
(PID.TID 0000.0001) %MON seaice_heff_min              =   0.0000000000000E+00
(PID.TID 0000.0001) %MON seaice_heff_mean             =   1.9710590750323E-01
(PID.TID 0000.0001) %MON seaice_heff_sd               =   9.5287311810225E-01
(PID.TID 0000.0001) %MON seaice_heff_del2             =   6.1493877171108E-03
(PID.TID 0000.0001) %MON seaice_hsnow_max             =   1.9965256077334E+00
(PID.TID 0000.0001) %MON seaice_hsnow_min             =   0.0000000000000E+00
(PID.TID 0000.0001) %MON seaice_hsnow_mean            =   2.1889254262761E-02
(PID.TID 0000.0001) %MON seaice_hsnow_sd              =   1.1669567088508E-01
(PID.TID 0000.0001) %MON seaice_hsnow_del2            =   1.4317577215188E-03
(PID.TID 0000.0001) // =======================================================
(PID.TID 0000.0001) // End MONITOR SEAICE statistics
(PID.TID 0000.0001) // =======================================================
 SEAICE_LSR: Residual Initial ipass,Uice,Vice=    1  2.70215978E-03  3.05348439E-03
 SEAICE_LSR (ipass=   1) iters,dU,Resid=     6  9.29243396E-05  3.96233655E-05
 SEAICE_LSR (ipass=   1) iters,dV,Resid=     6  4.87318463E-06  2.22154459E-05
 SEAICE_LSR: Residual Initial ipass,Uice,Vice=    2  1.72110808E-03  2.24647356E-03
 SEAICE_LSR (ipass=   2) iters,dU,Resid=     6  5.40974064E-05  2.55617130E-05
 SEAICE_LSR (ipass=   2) iters,dV,Resid=     6  2.23377295E-06  1.02037512E-05
 cg2d: Sum(rhs),rhsMax =  -4.47336910739010E+01  6.51805458014926E+01
(PID.TID 0000.0001)      cg2d_init_res =   1.53621326981058E-01
(PID.TID 0000.0001)      cg2d_iters(min,last) =      -1      10
(PID.TID 0000.0001)      cg2d_last_res =   8.54739613624882E-08
(PID.TID 0000.0001) // =======================================================
(PID.TID 0000.0001) // Begin MONITOR dynamic field statistics
(PID.TID 0000.0001) // =======================================================
(PID.TID 0000.0001) %MON time_tsnumber                =                    51
(PID.TID 0000.0001) %MON time_secondsf                =   4.5900000000000E+04
(PID.TID 0000.0001) %MON dynstat_eta_max              =   3.2123632755122E+00
(PID.TID 0000.0001) %MON dynstat_eta_min              =  -1.0393756974205E+00
(PID.TID 0000.0001) %MON dynstat_eta_mean             =   3.3880819021852E-02
(PID.TID 0000.0001) %MON dynstat_eta_sd               =   1.0419393353740E-01
(PID.TID 0000.0001) %MON dynstat_eta_del2             =   2.3068580794633E-03
(PID.TID 0000.0001) %MON dynstat_uvel_max             =   4.0512336988844E-01
(PID.TID 0000.0001) %MON dynstat_uvel_min             =  -4.3221991317115E-01
(PID.TID 0000.0001) %MON dynstat_uvel_mean            =  -1.5701015521959E-04
(PID.TID 0000.0001) %MON dynstat_uvel_sd              =   5.3162736937038E-03
(PID.TID 0000.0001) %MON dynstat_uvel_del2            =   7.9585106063006E-05
(PID.TID 0000.0001) %MON dynstat_vvel_max             =   4.9255090308177E-01
(PID.TID 0000.0001) %MON dynstat_vvel_min             =  -5.0105211696787E-01
(PID.TID 0000.0001) %MON dynstat_vvel_mean            =   6.7168208293412E-04
(PID.TID 0000.0001) %MON dynstat_vvel_sd              =   5.7162130831491E-03
(PID.TID 0000.0001) %MON dynstat_vvel_del2            =   7.4917727464478E-05
(PID.TID 0000.0001) %MON dynstat_wvel_max             =   1.6191374831433E-04
(PID.TID 0000.0001) %MON dynstat_wvel_min             =  -2.3208754582510E-04
(PID.TID 0000.0001) %MON dynstat_wvel_mean            =  -3.4646591643847E-07
(PID.TID 0000.0001) %MON dynstat_wvel_sd              =   7.2414650627440E-06
(PID.TID 0000.0001) %MON dynstat_wvel_del2            =   8.2075113178379E-08
(PID.TID 0000.0001) %MON dynstat_theta_max            =   2.1469708779713E+01
(PID.TID 0000.0001) %MON dynstat_theta_min            =   1.6192954078914E+01
(PID.TID 0000.0001) %MON dynstat_theta_mean           =   1.9997904622121E+01
(PID.TID 0000.0001) %MON dynstat_theta_sd             =   2.3438558863171E-02
(PID.TID 0000.0001) %MON dynstat_theta_del2           =   3.4195124603046E-04
(PID.TID 0000.0001) %MON dynstat_salt_max             =   3.5078456930280E+01
(PID.TID 0000.0001) %MON dynstat_salt_min             =   2.9784183895870E+01
(PID.TID 0000.0001) %MON dynstat_salt_mean            =   3.4999665549549E+01
(PID.TID 0000.0001) %MON dynstat_salt_sd              =   2.5518965182603E-02
(PID.TID 0000.0001) %MON dynstat_salt_del2            =   6.7960785613773E-04
(PID.TID 0000.0001) %MON dynstat_sst_max              =   2.1469708779713E+01
(PID.TID 0000.0001) %MON dynstat_sst_min              =   1.6192954078914E+01
(PID.TID 0000.0001) %MON dynstat_sst_mean             =   2.0046332734925E+01
(PID.TID 0000.0001) %MON dynstat_sst_sd               =   1.6962104049201E-01
(PID.TID 0000.0001) %MON dynstat_sst_del2             =   3.9575808108697E-03
(PID.TID 0000.0001) %MON dynstat_sss_max              =   3.5078456930280E+01
(PID.TID 0000.0001) %MON dynstat_sss_min              =   2.9784183895870E+01
(PID.TID 0000.0001) %MON dynstat_sss_mean             =   3.4983374081361E+01
(PID.TID 0000.0001) %MON dynstat_sss_sd               =   2.1785793629870E-01
(PID.TID 0000.0001) %MON dynstat_sss_del2             =   8.5346915251968E-03
(PID.TID 0000.0001) %MON forcing_qnet_max             =   3.8605693359375E+03
(PID.TID 0000.0001) %MON forcing_qnet_min             =  -4.6269963753217E+03
(PID.TID 0000.0001) %MON forcing_qnet_mean            =  -1.5196219815538E+01
(PID.TID 0000.0001) %MON forcing_qnet_sd              =   5.2147503953903E+02
(PID.TID 0000.0001) %MON forcing_qnet_del2            =   7.8795693026844E+00
(PID.TID 0000.0001) %MON forcing_qsw_max              =   0.0000000000000E+00
(PID.TID 0000.0001) %MON forcing_qsw_min              =  -1.0525898123213E+02
(PID.TID 0000.0001) %MON forcing_qsw_mean             =  -1.3949083450267E+01
(PID.TID 0000.0001) %MON forcing_qsw_sd               =   2.3627277734118E+01
(PID.TID 0000.0001) %MON forcing_qsw_del2             =   1.3857143560259E-01
(PID.TID 0000.0001) %MON forcing_empmr_max            =   6.6085974685848E-03
(PID.TID 0000.0001) %MON forcing_empmr_min            =  -9.4998016953468E-02
(PID.TID 0000.0001) %MON forcing_empmr_mean           =  -4.2864689908015E-04
(PID.TID 0000.0001) %MON forcing_empmr_sd             =   4.2072590617832E-03
(PID.TID 0000.0001) %MON forcing_empmr_del2           =   1.6587375619748E-04
(PID.TID 0000.0001) %MON forcing_fu_max               =   6.5927849492525E-01
(PID.TID 0000.0001) %MON forcing_fu_min               =  -5.9526483292019E-01
(PID.TID 0000.0001) %MON forcing_fu_mean              =  -1.3870751182907E-03
(PID.TID 0000.0001) %MON forcing_fu_sd                =   8.9899809459552E-02
(PID.TID 0000.0001) %MON forcing_fu_del2              =   7.6558979236135E-04
(PID.TID 0000.0001) %MON forcing_fv_max               =   4.3483577950300E-01
(PID.TID 0000.0001) %MON forcing_fv_min               =  -4.1579623905226E-01
(PID.TID 0000.0001) %MON forcing_fv_mean              =  -6.0597674484272E-03
(PID.TID 0000.0001) %MON forcing_fv_sd                =   7.8242599186514E-02
(PID.TID 0000.0001) %MON forcing_fv_del2              =   6.5195490089899E-04
(PID.TID 0000.0001) %MON trAdv_CFL_u_max              =   1.2304165229587E-03
(PID.TID 0000.0001) %MON trAdv_CFL_v_max              =   1.6601136567184E-03
(PID.TID 0000.0001) %MON trAdv_CFL_w_max              =   2.4110073477910E-03
(PID.TID 0000.0001) %MON advcfl_uvel_max              =   1.2295351605865E-03
(PID.TID 0000.0001) %MON advcfl_vvel_max              =   1.4649291980952E-03
(PID.TID 0000.0001) %MON advcfl_wvel_max              =   3.3042788505554E-03
(PID.TID 0000.0001) %MON advcfl_W_hf_max              =   2.4110073477910E-03
(PID.TID 0000.0001) %MON pe_b_mean                    =   1.5991781339121E-05
(PID.TID 0000.0001) %MON ke_max                       =   1.2037704469618E-01
(PID.TID 0000.0001) %MON ke_mean                      =   2.8364824880522E-05
(PID.TID 0000.0001) %MON ke_vol                       =   1.3398146385096E+18
(PID.TID 0000.0001) %MON vort_r_min                   =  -2.9064877445558E-06
(PID.TID 0000.0001) %MON vort_r_max                   =   2.0933448470141E-06
(PID.TID 0000.0001) %MON vort_a_mean                  =  -2.0549865324846E-05
(PID.TID 0000.0001) %MON vort_a_sd                    =   7.5259409236108E-05
(PID.TID 0000.0001) %MON vort_p_mean                  =  -2.4783302045196E-05
(PID.TID 0000.0001) %MON vort_p_sd                    =   1.2810526364658E-04
(PID.TID 0000.0001) %MON surfExpan_theta_mean         =  -6.3634804022076E-09
(PID.TID 0000.0001) %MON surfExpan_salt_mean          =   8.1384061935366E-07
(PID.TID 0000.0001) // =======================================================
(PID.TID 0000.0001) // End MONITOR dynamic field statistics
(PID.TID 0000.0001) // =======================================================
(PID.TID 0000.0001) // =======================================================
(PID.TID 0000.0001) // Begin MONITOR SEAICE statistics
(PID.TID 0000.0001) // =======================================================
(PID.TID 0000.0001) %MON seaice_tsnumber              =                    51
(PID.TID 0000.0001) %MON seaice_time_sec              =   4.5900000000000E+04
(PID.TID 0000.0001) %MON seaice_uice_max              =   2.8573049055526E-01
(PID.TID 0000.0001) %MON seaice_uice_min              =  -3.8610684585354E-01
(PID.TID 0000.0001) %MON seaice_uice_mean             =  -5.7441073702275E-03
(PID.TID 0000.0001) %MON seaice_uice_sd               =   3.8025005974330E-02
(PID.TID 0000.0001) %MON seaice_uice_del2             =   8.3106222810213E-04
(PID.TID 0000.0001) %MON seaice_vice_max              =   4.8677410113584E-01
(PID.TID 0000.0001) %MON seaice_vice_min              =  -4.6939860062842E-01
(PID.TID 0000.0001) %MON seaice_vice_mean             =  -9.9371480433783E-03
(PID.TID 0000.0001) %MON seaice_vice_sd               =   4.1261429598400E-02
(PID.TID 0000.0001) %MON seaice_vice_del2             =   7.9919344699426E-04
(PID.TID 0000.0001) %MON seaice_area_max              =   9.9054417339228E-01
(PID.TID 0000.0001) %MON seaice_area_min              =   0.0000000000000E+00
(PID.TID 0000.0001) %MON seaice_area_mean             =   6.3994593616546E-02
(PID.TID 0000.0001) %MON seaice_area_sd               =   2.2318659857768E-01
(PID.TID 0000.0001) %MON seaice_area_del2             =   1.5718640317254E-03
(PID.TID 0000.0001) %MON seaice_heff_max              =   8.3046490986223E+00
(PID.TID 0000.0001) %MON seaice_heff_min              =   0.0000000000000E+00
(PID.TID 0000.0001) %MON seaice_heff_mean             =   1.9693308594335E-01
(PID.TID 0000.0001) %MON seaice_heff_sd               =   9.5238379366340E-01
(PID.TID 0000.0001) %MON seaice_heff_del2             =   6.1477293397388E-03
(PID.TID 0000.0001) %MON seaice_hsnow_max             =   1.9957982277131E+00
(PID.TID 0000.0001) %MON seaice_hsnow_min             =   0.0000000000000E+00
(PID.TID 0000.0001) %MON seaice_hsnow_mean            =   2.1870982443902E-02
(PID.TID 0000.0001) %MON seaice_hsnow_sd              =   1.1663753334506E-01
(PID.TID 0000.0001) %MON seaice_hsnow_del2            =   1.4310524125520E-03
(PID.TID 0000.0001) // =======================================================
(PID.TID 0000.0001) // End MONITOR SEAICE statistics
(PID.TID 0000.0001) // =======================================================
 SEAICE_LSR: Residual Initial ipass,Uice,Vice=    1  2.66129968E-03  2.91778377E-03
 SEAICE_LSR (ipass=   1) iters,dU,Resid=     6  8.73084182E-05  3.13602864E-05
 SEAICE_LSR (ipass=   1) iters,dV,Resid=     6  4.69324212E-06  2.12324020E-05
 SEAICE_LSR: Residual Initial ipass,Uice,Vice=    2  1.67655395E-03  2.15833171E-03
 SEAICE_LSR (ipass=   2) iters,dU,Resid=     6  5.02325737E-05  1.97240303E-05
 SEAICE_LSR (ipass=   2) iters,dV,Resid=     6  2.26365919E-06  1.01823418E-05
 cg2d: Sum(rhs),rhsMax =  -4.63179801001647E+01  6.36385418918269E+01
(PID.TID 0000.0001)      cg2d_init_res =   1.61055279419743E-01
(PID.TID 0000.0001)      cg2d_iters(min,last) =      -1      10
(PID.TID 0000.0001)      cg2d_last_res =   7.18695829626869E-08
(PID.TID 0000.0001) // =======================================================
(PID.TID 0000.0001) // Begin MONITOR dynamic field statistics
(PID.TID 0000.0001) // =======================================================
(PID.TID 0000.0001) %MON time_tsnumber                =                    52
(PID.TID 0000.0001) %MON time_secondsf                =   4.6800000000000E+04
(PID.TID 0000.0001) %MON dynstat_eta_max              =   3.0349109604303E+00
(PID.TID 0000.0001) %MON dynstat_eta_min              =  -9.4556702931054E-01
(PID.TID 0000.0001) %MON dynstat_eta_mean             =   3.4250822524463E-02
(PID.TID 0000.0001) %MON dynstat_eta_sd               =   1.0174587546700E-01
(PID.TID 0000.0001) %MON dynstat_eta_del2             =   2.2361266000932E-03
(PID.TID 0000.0001) %MON dynstat_uvel_max             =   3.9138727859750E-01
(PID.TID 0000.0001) %MON dynstat_uvel_min             =  -4.2372348594404E-01
(PID.TID 0000.0001) %MON dynstat_uvel_mean            =  -1.4897362185288E-04
(PID.TID 0000.0001) %MON dynstat_uvel_sd              =   5.2669717595317E-03
(PID.TID 0000.0001) %MON dynstat_uvel_del2            =   8.0895443693187E-05
(PID.TID 0000.0001) %MON dynstat_vvel_max             =   5.2341771218287E-01
(PID.TID 0000.0001) %MON dynstat_vvel_min             =  -5.2827871587228E-01
(PID.TID 0000.0001) %MON dynstat_vvel_mean            =   7.1365303981683E-04
(PID.TID 0000.0001) %MON dynstat_vvel_sd              =   5.7426513001815E-03
(PID.TID 0000.0001) %MON dynstat_vvel_del2            =   7.5774908122934E-05
(PID.TID 0000.0001) %MON dynstat_wvel_max             =   1.5593335451802E-04
(PID.TID 0000.0001) %MON dynstat_wvel_min             =  -2.3653925975204E-04
(PID.TID 0000.0001) %MON dynstat_wvel_mean            =  -3.6563886479595E-07
(PID.TID 0000.0001) %MON dynstat_wvel_sd              =   7.2740320124659E-06
(PID.TID 0000.0001) %MON dynstat_wvel_del2            =   8.2740988077826E-08
(PID.TID 0000.0001) %MON dynstat_theta_max            =   2.1490654512598E+01
(PID.TID 0000.0001) %MON dynstat_theta_min            =   1.6190336762227E+01
(PID.TID 0000.0001) %MON dynstat_theta_mean           =   1.9997905507438E+01
(PID.TID 0000.0001) %MON dynstat_theta_sd             =   2.3566805125566E-02
(PID.TID 0000.0001) %MON dynstat_theta_del2           =   3.4329117301622E-04
(PID.TID 0000.0001) %MON dynstat_salt_max             =   3.5078455514753E+01
(PID.TID 0000.0001) %MON dynstat_salt_min             =   2.9730964947755E+01
(PID.TID 0000.0001) %MON dynstat_salt_mean            =   3.4999661984817E+01
(PID.TID 0000.0001) %MON dynstat_salt_sd              =   2.5784298669634E-02
(PID.TID 0000.0001) %MON dynstat_salt_del2            =   6.8645991388499E-04
(PID.TID 0000.0001) %MON dynstat_sst_max              =   2.1490654512598E+01
(PID.TID 0000.0001) %MON dynstat_sst_min              =   1.6190336762227E+01
(PID.TID 0000.0001) %MON dynstat_sst_mean             =   2.0047150438206E+01
(PID.TID 0000.0001) %MON dynstat_sst_sd               =   1.7063460436874E-01
(PID.TID 0000.0001) %MON dynstat_sst_del2             =   3.9751251681211E-03
(PID.TID 0000.0001) %MON dynstat_sss_max              =   3.5078455514753E+01
(PID.TID 0000.0001) %MON dynstat_sss_min              =   2.9730964947755E+01
(PID.TID 0000.0001) %MON dynstat_sss_mean             =   3.4983175450821E+01
(PID.TID 0000.0001) %MON dynstat_sss_sd               =   2.2011641431500E-01
(PID.TID 0000.0001) %MON dynstat_sss_del2             =   8.6207685039847E-03
(PID.TID 0000.0001) %MON forcing_qnet_max             =   3.8145354003906E+03
(PID.TID 0000.0001) %MON forcing_qnet_min             =  -4.5685183363489E+03
(PID.TID 0000.0001) %MON forcing_qnet_mean            =  -1.4461674615752E+01
(PID.TID 0000.0001) %MON forcing_qnet_sd              =   5.1808287514895E+02
(PID.TID 0000.0001) %MON forcing_qnet_del2            =   7.7822001349580E+00
(PID.TID 0000.0001) %MON forcing_qsw_max              =   0.0000000000000E+00
(PID.TID 0000.0001) %MON forcing_qsw_min              =  -1.0308671436808E+02
(PID.TID 0000.0001) %MON forcing_qsw_mean             =  -1.3991572416340E+01
(PID.TID 0000.0001) %MON forcing_qsw_sd               =   2.3488043507827E+01
(PID.TID 0000.0001) %MON forcing_qsw_del2             =   1.3833225135623E-01
(PID.TID 0000.0001) %MON forcing_empmr_max            =   6.5405024215579E-03
(PID.TID 0000.0001) %MON forcing_empmr_min            =  -9.4018802046776E-02
(PID.TID 0000.0001) %MON forcing_empmr_mean           =  -4.2550402800312E-04
(PID.TID 0000.0001) %MON forcing_empmr_sd             =   4.1644238828973E-03
(PID.TID 0000.0001) %MON forcing_empmr_del2           =   1.6412429755530E-04
(PID.TID 0000.0001) %MON forcing_fu_max               =   6.6199298908181E-01
(PID.TID 0000.0001) %MON forcing_fu_min               =  -5.9846615416788E-01
(PID.TID 0000.0001) %MON forcing_fu_mean              =  -1.4095444511977E-03
(PID.TID 0000.0001) %MON forcing_fu_sd                =   8.9930731427702E-02
(PID.TID 0000.0001) %MON forcing_fu_del2              =   7.6583701385393E-04
(PID.TID 0000.0001) %MON forcing_fv_max               =   4.3324347740191E-01
(PID.TID 0000.0001) %MON forcing_fv_min               =  -4.1746869237133E-01
(PID.TID 0000.0001) %MON forcing_fv_mean              =  -6.1719826557857E-03
(PID.TID 0000.0001) %MON forcing_fv_sd                =   7.8037796652877E-02
(PID.TID 0000.0001) %MON forcing_fv_del2              =   6.5031722814920E-04
(PID.TID 0000.0001) %MON trAdv_CFL_u_max              =   1.2814986168411E-03
(PID.TID 0000.0001) %MON trAdv_CFL_v_max              =   1.7320857673379E-03
(PID.TID 0000.0001) %MON trAdv_CFL_w_max              =   2.4536427705411E-03
(PID.TID 0000.0001) %MON advcfl_uvel_max              =   1.2193005653362E-03
(PID.TID 0000.0001) %MON advcfl_vvel_max              =   1.6067600391941E-03
(PID.TID 0000.0001) %MON advcfl_wvel_max              =   3.2702192016270E-03
(PID.TID 0000.0001) %MON advcfl_W_hf_max              =   2.4536427705411E-03
(PID.TID 0000.0001) %MON pe_b_mean                    =   1.5353744122102E-05
(PID.TID 0000.0001) %MON ke_max                       =   1.2957252670252E-01
(PID.TID 0000.0001) %MON ke_mean                      =   2.8291550681915E-05
(PID.TID 0000.0001) %MON ke_vol                       =   1.3398147741435E+18
(PID.TID 0000.0001) %MON vort_r_min                   =  -3.0642871961906E-06
(PID.TID 0000.0001) %MON vort_r_max                   =   2.3563387527685E-06
(PID.TID 0000.0001) %MON vort_a_mean                  =  -2.0549865324846E-05
(PID.TID 0000.0001) %MON vort_a_sd                    =   7.5259419344890E-05
(PID.TID 0000.0001) %MON vort_p_mean                  =  -2.4783299106079E-05
(PID.TID 0000.0001) %MON vort_p_sd                    =   1.2810522746565E-04
(PID.TID 0000.0001) %MON surfExpan_theta_mean         =   2.8335410142020E-08
(PID.TID 0000.0001) %MON surfExpan_salt_mean          =   8.1747553296260E-07
(PID.TID 0000.0001) // =======================================================
(PID.TID 0000.0001) // End MONITOR dynamic field statistics
(PID.TID 0000.0001) // =======================================================
(PID.TID 0000.0001) // =======================================================
(PID.TID 0000.0001) // Begin MONITOR SEAICE statistics
(PID.TID 0000.0001) // =======================================================
(PID.TID 0000.0001) %MON seaice_tsnumber              =                    52
(PID.TID 0000.0001) %MON seaice_time_sec              =   4.6800000000000E+04
(PID.TID 0000.0001) %MON seaice_uice_max              =   2.8581068847604E-01
(PID.TID 0000.0001) %MON seaice_uice_min              =  -3.5300167255338E-01
(PID.TID 0000.0001) %MON seaice_uice_mean             =  -5.6644989034774E-03
(PID.TID 0000.0001) %MON seaice_uice_sd               =   3.7548031779359E-02
(PID.TID 0000.0001) %MON seaice_uice_del2             =   8.3663773335795E-04
(PID.TID 0000.0001) %MON seaice_vice_max              =   5.2505295864883E-01
(PID.TID 0000.0001) %MON seaice_vice_min              =  -4.9818774703627E-01
(PID.TID 0000.0001) %MON seaice_vice_mean             =  -1.0178502527868E-02
(PID.TID 0000.0001) %MON seaice_vice_sd               =   4.1077105678976E-02
(PID.TID 0000.0001) %MON seaice_vice_del2             =   8.0306875385509E-04
(PID.TID 0000.0001) %MON seaice_area_max              =   9.9023449915239E-01
(PID.TID 0000.0001) %MON seaice_area_min              =   0.0000000000000E+00
(PID.TID 0000.0001) %MON seaice_area_mean             =   6.3901954432976E-02
(PID.TID 0000.0001) %MON seaice_area_sd               =   2.2293675084745E-01
(PID.TID 0000.0001) %MON seaice_area_del2             =   1.5675286042990E-03
(PID.TID 0000.0001) %MON seaice_heff_max              =   8.3020407445268E+00
(PID.TID 0000.0001) %MON seaice_heff_min              =   0.0000000000000E+00
(PID.TID 0000.0001) %MON seaice_heff_mean             =   1.9676035489474E-01
(PID.TID 0000.0001) %MON seaice_heff_sd               =   9.5189430126144E-01
(PID.TID 0000.0001) %MON seaice_heff_del2             =   6.1460677930071E-03
(PID.TID 0000.0001) %MON seaice_hsnow_max             =   1.9950705853903E+00
(PID.TID 0000.0001) %MON seaice_hsnow_min             =   0.0000000000000E+00
(PID.TID 0000.0001) %MON seaice_hsnow_mean            =   2.1852182671692E-02
(PID.TID 0000.0001) %MON seaice_hsnow_sd              =   1.1657765918877E-01
(PID.TID 0000.0001) %MON seaice_hsnow_del2            =   1.4303715183056E-03
(PID.TID 0000.0001) // =======================================================
(PID.TID 0000.0001) // End MONITOR SEAICE statistics
(PID.TID 0000.0001) // =======================================================
 Compute Stats, Diag. #    211  SIarea    vol(   0 ): 1.456E+15  Parms: SM      M1      
 Compute Stats, Diag. #    214  SIheff    vol(   0 ): 1.456E+15  Parms: SM      M1      
 Compute Stats, Diag. #    216  SIhsnow   vol(   0 ): 1.456E+15  Parms: SM      M1      
 Compute Stats, Diag. #     83  sIceLoad  vol(   0 ): 1.456E+15  Parms: SM      U1      
 Compute Stats, Diag. #    220  SIuice    vol(   0 ): 1.383E+15  Parms: UU      M1      
 Compute Stats, Diag. #    221  SIvice    vol(   0 ): 1.391E+15  Parms: VV      M1      
 Compute Stats, Diag. #    222  SItaux    vol(   0 ): 1.383E+15  Parms: UU      U1      
 Compute Stats, Diag. #    223  SItauy    vol(   0 ): 1.391E+15  Parms: VV      U1      
 Compute Stats, Diag. #    282  SIareaN   vol(   0 ): 7.278E+15  Parms: SM      MX      
 Compute Stats, Diag. #    281  SIheffN   vol(   0 ): 7.278E+15  Parms: SM      MX      
 Compute Stats, Diag. #    283  SIhsnowN  vol(   0 ): 7.278E+15  Parms: SM      MX      
 Compute Stats, Diag. #    287  SIqSnow   vol(   0 ): 7.278E+15  Parms: SM      MX      
 Compute Stats, Diag. #    286  SIqIce    vol(   0 ): 2.911E+16  Parms: SM      MX      
 Compute Stats, Diag. #    288  SImeltPd  vol(   0 ): 7.278E+15  Parms: SM      MX      
 Compute Stats, Diag. #    285  SItIces   vol(   0 ): 7.278E+15  Parms: SM      MX      
 Compute Stats, Diag. #    289  SIiceAge  vol(   0 ): 7.278E+15  Parms: SM      MX      
 Compute Stats, Diag. #    290  SI_dArea  vol(   0 ): 7.278E+15  Parms: SM      MX      
 Compute Stats, Diag. #    291  SI_dHeff  vol(   0 ): 7.278E+15  Parms: SM      MX      
 Compute Stats, Diag. #    292  SI_dHsnw  vol(   0 ): 7.278E+15  Parms: SM      MX      
 Compute Stats, Diag. #    295  SI_dQSnw  vol(   0 ): 7.278E+15  Parms: SM      MX      
 Compute Stats, Diag. #    294  SI_dQIce  vol(   0 ): 2.911E+16  Parms: SM      MX      
 SEAICE_LSR: Residual Initial ipass,Uice,Vice=    1  2.65432987E-03  2.72599968E-03
 SEAICE_LSR (ipass=   1) iters,dU,Resid=     6  8.27396857E-05  2.64818672E-05
 SEAICE_LSR (ipass=   1) iters,dV,Resid=     6  4.54314936E-06  2.04577941E-05
 SEAICE_LSR: Residual Initial ipass,Uice,Vice=    2  1.65351126E-03  2.04446310E-03
 SEAICE_LSR (ipass=   2) iters,dU,Resid=     6  4.69470494E-05  1.69694975E-05
 SEAICE_LSR (ipass=   2) iters,dV,Resid=     6  2.26077087E-06  1.01217016E-05
 cg2d: Sum(rhs),rhsMax =  -4.82466003582682E+01  6.17471049500645E+01
(PID.TID 0000.0001)      cg2d_init_res =   1.70938924348902E-01
(PID.TID 0000.0001)      cg2d_iters(min,last) =      -1      10
(PID.TID 0000.0001)      cg2d_last_res =   6.90939352389917E-08
(PID.TID 0000.0001) // =======================================================
(PID.TID 0000.0001) // Begin MONITOR dynamic field statistics
(PID.TID 0000.0001) // =======================================================
(PID.TID 0000.0001) %MON time_tsnumber                =                    53
(PID.TID 0000.0001) %MON time_secondsf                =   4.7700000000000E+04
(PID.TID 0000.0001) %MON dynstat_eta_max              =   2.8145217950237E+00
(PID.TID 0000.0001) %MON dynstat_eta_min              =  -8.3623217401869E-01
(PID.TID 0000.0001) %MON dynstat_eta_mean             =   3.4616606409562E-02
(PID.TID 0000.0001) %MON dynstat_eta_sd               =   9.8870464721913E-02
(PID.TID 0000.0001) %MON dynstat_eta_del2             =   2.1474177996645E-03
(PID.TID 0000.0001) %MON dynstat_uvel_max             =   3.7630605907306E-01
(PID.TID 0000.0001) %MON dynstat_uvel_min             =  -4.4167350626095E-01
(PID.TID 0000.0001) %MON dynstat_uvel_mean            =  -1.3941218729181E-04
(PID.TID 0000.0001) %MON dynstat_uvel_sd              =   5.2350077642405E-03
(PID.TID 0000.0001) %MON dynstat_uvel_del2            =   8.2155600219586E-05
(PID.TID 0000.0001) %MON dynstat_vvel_max             =   5.6575286074144E-01
(PID.TID 0000.0001) %MON dynstat_vvel_min             =  -5.5323707276626E-01
(PID.TID 0000.0001) %MON dynstat_vvel_mean            =   7.5312713378626E-04
(PID.TID 0000.0001) %MON dynstat_vvel_sd              =   5.7748555105678E-03
(PID.TID 0000.0001) %MON dynstat_vvel_del2            =   7.7376048929394E-05
(PID.TID 0000.0001) %MON dynstat_wvel_max             =   1.4984427737307E-04
(PID.TID 0000.0001) %MON dynstat_wvel_min             =  -2.4016769708660E-04
(PID.TID 0000.0001) %MON dynstat_wvel_mean            =  -3.7962529320985E-07
(PID.TID 0000.0001) %MON dynstat_wvel_sd              =   7.3010930525156E-06
(PID.TID 0000.0001) %MON dynstat_wvel_del2            =   8.3243772407913E-08
(PID.TID 0000.0001) %MON dynstat_theta_max            =   2.1511355314433E+01
(PID.TID 0000.0001) %MON dynstat_theta_min            =   1.6186984010824E+01
(PID.TID 0000.0001) %MON dynstat_theta_mean           =   1.9997906557667E+01
(PID.TID 0000.0001) %MON dynstat_theta_sd             =   2.3694757792591E-02
(PID.TID 0000.0001) %MON dynstat_theta_del2           =   3.4463188261789E-04
(PID.TID 0000.0001) %MON dynstat_salt_max             =   3.5078453364597E+01
(PID.TID 0000.0001) %MON dynstat_salt_min             =   2.9678898502944E+01
(PID.TID 0000.0001) %MON dynstat_salt_mean            =   3.4999658472447E+01
(PID.TID 0000.0001) %MON dynstat_salt_sd              =   2.6044131161248E-02
(PID.TID 0000.0001) %MON dynstat_salt_del2            =   6.9315756172926E-04
(PID.TID 0000.0001) %MON dynstat_sst_max              =   2.1511355314433E+01
(PID.TID 0000.0001) %MON dynstat_sst_min              =   1.6186984010824E+01
(PID.TID 0000.0001) %MON dynstat_sst_mean             =   2.0047965597974E+01
(PID.TID 0000.0001) %MON dynstat_sst_sd               =   1.7164739494353E-01
(PID.TID 0000.0001) %MON dynstat_sst_del2             =   3.9925679555873E-03
(PID.TID 0000.0001) %MON dynstat_sss_max              =   3.5078453364597E+01
(PID.TID 0000.0001) %MON dynstat_sss_min              =   2.9678898502944E+01
(PID.TID 0000.0001) %MON dynstat_sss_mean             =   3.4982979580671E+01
(PID.TID 0000.0001) %MON dynstat_sss_sd               =   2.2232803514005E-01
(PID.TID 0000.0001) %MON dynstat_sss_del2             =   8.7048973209999E-03
(PID.TID 0000.0001) %MON forcing_qnet_max             =   3.7690637207031E+03
(PID.TID 0000.0001) %MON forcing_qnet_min             =  -4.5120766601562E+03
(PID.TID 0000.0001) %MON forcing_qnet_mean            =  -1.7206961743292E+01
(PID.TID 0000.0001) %MON forcing_qnet_sd              =   5.1478544216737E+02
(PID.TID 0000.0001) %MON forcing_qnet_del2            =   7.9006066292560E+00
(PID.TID 0000.0001) %MON forcing_qsw_max              =   0.0000000000000E+00
(PID.TID 0000.0001) %MON forcing_qsw_min              =  -9.8675966216507E+01
(PID.TID 0000.0001) %MON forcing_qsw_mean             =  -1.4365151016370E+01
(PID.TID 0000.0001) %MON forcing_qsw_sd               =   2.3597771755771E+01
(PID.TID 0000.0001) %MON forcing_qsw_del2             =   1.3696598118241E-01
(PID.TID 0000.0001) %MON forcing_empmr_max            =   6.4730956219137E-03
(PID.TID 0000.0001) %MON forcing_empmr_min            =  -9.3050494790077E-02
(PID.TID 0000.0001) %MON forcing_empmr_mean           =  -4.2065146786317E-04
(PID.TID 0000.0001) %MON forcing_empmr_sd             =   4.1205771228518E-03
(PID.TID 0000.0001) %MON forcing_empmr_del2           =   1.6226520076538E-04
(PID.TID 0000.0001) %MON forcing_fu_max               =   6.6151193384405E-01
(PID.TID 0000.0001) %MON forcing_fu_min               =  -6.0171916406919E-01
(PID.TID 0000.0001) %MON forcing_fu_mean              =  -1.4108920693783E-03
(PID.TID 0000.0001) %MON forcing_fu_sd                =   8.9822276357132E-02
(PID.TID 0000.0001) %MON forcing_fu_del2              =   7.6448294235499E-04
(PID.TID 0000.0001) %MON forcing_fv_max               =   4.3127411049810E-01
(PID.TID 0000.0001) %MON forcing_fv_min               =  -4.1825683849072E-01
(PID.TID 0000.0001) %MON forcing_fv_mean              =  -6.2656919715746E-03
(PID.TID 0000.0001) %MON forcing_fv_sd                =   7.7838794002945E-02
(PID.TID 0000.0001) %MON forcing_fv_del2              =   6.4873773501783E-04
(PID.TID 0000.0001) %MON trAdv_CFL_u_max              =   1.3291966562472E-03
(PID.TID 0000.0001) %MON trAdv_CFL_v_max              =   1.8636837438044E-03
(PID.TID 0000.0001) %MON trAdv_CFL_w_max              =   2.4879532143192E-03
(PID.TID 0000.0001) %MON advcfl_uvel_max              =   1.2835072524396E-03
(PID.TID 0000.0001) %MON advcfl_vvel_max              =   1.8462579544088E-03
(PID.TID 0000.0001) %MON advcfl_wvel_max              =   3.2365389492201E-03
(PID.TID 0000.0001) %MON advcfl_W_hf_max              =   2.4879532143192E-03
(PID.TID 0000.0001) %MON pe_b_mean                    =   1.4618831309377E-05
(PID.TID 0000.0001) %MON ke_max                       =   1.3873568039826E-01
(PID.TID 0000.0001) %MON ke_mean                      =   2.8335047949135E-05
(PID.TID 0000.0001) %MON ke_vol                       =   1.3398149087828E+18
(PID.TID 0000.0001) %MON vort_r_min                   =  -3.2164269944994E-06
(PID.TID 0000.0001) %MON vort_r_max                   =   2.5692889288063E-06
(PID.TID 0000.0001) %MON vort_a_mean                  =  -2.0549865324846E-05
(PID.TID 0000.0001) %MON vort_a_sd                    =   7.5259428909205E-05
(PID.TID 0000.0001) %MON vort_p_mean                  =  -2.4783296131532E-05
(PID.TID 0000.0001) %MON vort_p_sd                    =   1.2810519712128E-04
(PID.TID 0000.0001) %MON surfExpan_theta_mean         =   5.6943151724626E-08
(PID.TID 0000.0001) %MON surfExpan_salt_mean          =   8.2162984600974E-07
(PID.TID 0000.0001) // =======================================================
(PID.TID 0000.0001) // End MONITOR dynamic field statistics
(PID.TID 0000.0001) // =======================================================
(PID.TID 0000.0001) // =======================================================
(PID.TID 0000.0001) // Begin MONITOR SEAICE statistics
(PID.TID 0000.0001) // =======================================================
(PID.TID 0000.0001) %MON seaice_tsnumber              =                    53
(PID.TID 0000.0001) %MON seaice_time_sec              =   4.7700000000000E+04
(PID.TID 0000.0001) %MON seaice_uice_max              =   2.8370679468985E-01
(PID.TID 0000.0001) %MON seaice_uice_min              =  -3.1656167592272E-01
(PID.TID 0000.0001) %MON seaice_uice_mean             =  -5.5713270822382E-03
(PID.TID 0000.0001) %MON seaice_uice_sd               =   3.7164933692885E-02
(PID.TID 0000.0001) %MON seaice_uice_del2             =   8.4255738449956E-04
(PID.TID 0000.0001) %MON seaice_vice_max              =   5.5586427060552E-01
(PID.TID 0000.0001) %MON seaice_vice_min              =  -5.2497960949331E-01
(PID.TID 0000.0001) %MON seaice_vice_mean             =  -1.0401519131309E-02
(PID.TID 0000.0001) %MON seaice_vice_sd               =   4.0963856149852E-02
(PID.TID 0000.0001) %MON seaice_vice_del2             =   8.1382690504238E-04
(PID.TID 0000.0001) %MON seaice_area_max              =   9.8992131620180E-01
(PID.TID 0000.0001) %MON seaice_area_min              =   0.0000000000000E+00
(PID.TID 0000.0001) %MON seaice_area_mean             =   6.3809444134916E-02
(PID.TID 0000.0001) %MON seaice_area_sd               =   2.2268728623971E-01
(PID.TID 0000.0001) %MON seaice_area_del2             =   1.5632299041436E-03
(PID.TID 0000.0001) %MON seaice_heff_max              =   8.2994319465749E+00
(PID.TID 0000.0001) %MON seaice_heff_min              =   0.0000000000000E+00
(PID.TID 0000.0001) %MON seaice_heff_mean             =   1.9658776655338E-01
(PID.TID 0000.0001) %MON seaice_heff_sd               =   9.5140473937931E-01
(PID.TID 0000.0001) %MON seaice_heff_del2             =   6.1444082162297E-03
(PID.TID 0000.0001) %MON seaice_hsnow_max             =   1.9943515959742E+00
(PID.TID 0000.0001) %MON seaice_hsnow_min             =   0.0000000000000E+00
(PID.TID 0000.0001) %MON seaice_hsnow_mean            =   2.1833377662172E-02
(PID.TID 0000.0001) %MON seaice_hsnow_sd              =   1.1651778719787E-01
(PID.TID 0000.0001) %MON seaice_hsnow_del2            =   1.4296891266931E-03
(PID.TID 0000.0001) // =======================================================
(PID.TID 0000.0001) // End MONITOR SEAICE statistics
(PID.TID 0000.0001) // =======================================================
 Computing Diagnostic #    211  SIarea       Counter:       1   Parms: SM      M1      
 Computing Diagnostic #    214  SIheff       Counter:       1   Parms: SM      M1      
 Computing Diagnostic #    216  SIhsnow      Counter:       1   Parms: SM      M1      
 Computing Diagnostic #     83  sIceLoad     Counter:       1   Parms: SM      U1      
 Computing Diagnostic #    220  SIuice       Counter:       1   Parms: UU      M1      
           Vector  Mate for  SIuice       Diagnostic #    221  SIvice   exists 
 Computing Diagnostic #    221  SIvice       Counter:       1   Parms: VV      M1      
           Vector  Mate for  SIvice       Diagnostic #    220  SIuice   exists 
 Computing Diagnostic #    222  SItaux       Counter:       1   Parms: UU      U1      
           Vector  Mate for  SItaux       Diagnostic #    223  SItauy   exists 
 Computing Diagnostic #    223  SItauy       Counter:       1   Parms: VV      U1      
           Vector  Mate for  SItauy       Diagnostic #    222  SItaux   exists 
 Computing Diagnostic #    284  CPLoWGHT     Counter:       1   Parms: SM      M1      
 Computing Diagnostic #    282  SIareaN      Counter:       1   Parms: SM      MX      
 Computing Diagnostic #    281  SIheffN      Counter:       1   Parms: SM      MX      
 Computing Diagnostic #    283  SIhsnowN     Counter:       1   Parms: SM      MX      
 Computing Diagnostic #    287  SIqSnow      Counter:       1   Parms: SM      MX      
 Computing Diagnostic #    288  SImeltPd     Counter:       1   Parms: SM      MX      
 Computing Diagnostic #    285  SItIces      Counter:       1   Parms: SM      MX      
 Computing Diagnostic #    289  SIiceAge     Counter:       1   Parms: SM      MX      
 Computing Diagnostic #    290  SI_dArea     Counter:       1   Parms: SM      MX      
 Computing Diagnostic #    291  SI_dHeff     Counter:       1   Parms: SM      MX      
 Computing Diagnostic #    292  SI_dHsnw     Counter:       1   Parms: SM      MX      
 Computing Diagnostic #    295  SI_dQSnw     Counter:       1   Parms: SM      MX      
 Computing Diagnostic #    286  SIqIce       Counter:       1   Parms: SM      MX      
 Computing Diagnostic #    294  SI_dQIce     Counter:       1   Parms: SM      MX      
 SEAICE_LSR: Residual Initial ipass,Uice,Vice=    1  2.72161785E-03  2.56746844E-03
 SEAICE_LSR (ipass=   1) iters,dU,Resid=     6  8.55326105E-05  2.84698592E-05
 SEAICE_LSR (ipass=   1) iters,dV,Resid=     6  4.28553558E-06  1.92474249E-05
 SEAICE_LSR: Residual Initial ipass,Uice,Vice=    2  1.66835918E-03  1.93385349E-03
 SEAICE_LSR (ipass=   2) iters,dU,Resid=     6  4.79576581E-05  1.94184581E-05
 SEAICE_LSR (ipass=   2) iters,dV,Resid=     6  2.25356379E-06  1.01125040E-05
 cg2d: Sum(rhs),rhsMax =  -5.05739978172052E+01  5.95233906256256E+01
(PID.TID 0000.0001)      cg2d_init_res =   1.82745433289380E-01
(PID.TID 0000.0001)      cg2d_iters(min,last) =      -1      10
(PID.TID 0000.0001)      cg2d_last_res =   7.95573616324779E-08
(PID.TID 0000.0001) // =======================================================
(PID.TID 0000.0001) // Begin MONITOR dynamic field statistics
(PID.TID 0000.0001) // =======================================================
(PID.TID 0000.0001) %MON time_tsnumber                =                    54
(PID.TID 0000.0001) %MON time_secondsf                =   4.8600000000000E+04
(PID.TID 0000.0001) %MON dynstat_eta_max              =   2.6524086582281E+00
(PID.TID 0000.0001) %MON dynstat_eta_min              =  -7.1393488464696E-01
(PID.TID 0000.0001) %MON dynstat_eta_mean             =   3.4979703234137E-02
(PID.TID 0000.0001) %MON dynstat_eta_sd               =   9.5676684894097E-02
(PID.TID 0000.0001) %MON dynstat_eta_del2             =   2.0435650005515E-03
(PID.TID 0000.0001) %MON dynstat_uvel_max             =   4.5183447392599E-01
(PID.TID 0000.0001) %MON dynstat_uvel_min             =  -4.6411998239557E-01
(PID.TID 0000.0001) %MON dynstat_uvel_mean            =  -1.2857428385422E-04
(PID.TID 0000.0001) %MON dynstat_uvel_sd              =   5.2192429121309E-03
(PID.TID 0000.0001) %MON dynstat_uvel_del2            =   8.3313762756776E-05
(PID.TID 0000.0001) %MON dynstat_vvel_max             =   6.2680857644652E-01
(PID.TID 0000.0001) %MON dynstat_vvel_min             =  -5.7567160152167E-01
(PID.TID 0000.0001) %MON dynstat_vvel_mean            =   7.8978663258482E-04
(PID.TID 0000.0001) %MON dynstat_vvel_sd              =   5.8077555298876E-03
(PID.TID 0000.0001) %MON dynstat_vvel_del2            =   7.9504197527500E-05
(PID.TID 0000.0001) %MON dynstat_wvel_max             =   1.4377898081098E-04
(PID.TID 0000.0001) %MON dynstat_wvel_min             =  -2.4297318524499E-04
(PID.TID 0000.0001) %MON dynstat_wvel_mean            =  -3.8899187939693E-07
(PID.TID 0000.0001) %MON dynstat_wvel_sd              =   7.3193294521224E-06
(PID.TID 0000.0001) %MON dynstat_wvel_del2            =   8.3565244545170E-08
(PID.TID 0000.0001) %MON dynstat_theta_max            =   2.1531809760945E+01
(PID.TID 0000.0001) %MON dynstat_theta_min            =   1.6182954257620E+01
(PID.TID 0000.0001) %MON dynstat_theta_mean           =   1.9997907616139E+01
(PID.TID 0000.0001) %MON dynstat_theta_sd             =   2.3821590712875E-02
(PID.TID 0000.0001) %MON dynstat_theta_del2           =   3.4593213326507E-04
(PID.TID 0000.0001) %MON dynstat_salt_max             =   3.5078450558602E+01
(PID.TID 0000.0001) %MON dynstat_salt_min             =   2.9627958797398E+01
(PID.TID 0000.0001) %MON dynstat_salt_mean            =   3.4999654997988E+01
(PID.TID 0000.0001) %MON dynstat_salt_sd              =   2.6298492425322E-02
(PID.TID 0000.0001) %MON dynstat_salt_del2            =   6.9970295343623E-04
(PID.TID 0000.0001) %MON dynstat_sst_max              =   2.1531809760945E+01
(PID.TID 0000.0001) %MON dynstat_sst_min              =   1.6182954257620E+01
(PID.TID 0000.0001) %MON dynstat_sst_mean             =   2.0048763728395E+01
(PID.TID 0000.0001) %MON dynstat_sst_sd               =   1.7265442054305E-01
(PID.TID 0000.0001) %MON dynstat_sst_del2             =   4.0094346951720E-03
(PID.TID 0000.0001) %MON dynstat_sss_max              =   3.5078450558602E+01
(PID.TID 0000.0001) %MON dynstat_sss_min              =   2.9627958797398E+01
(PID.TID 0000.0001) %MON dynstat_sss_mean             =   3.4982783217078E+01
(PID.TID 0000.0001) %MON dynstat_sss_sd               =   2.2449301703504E-01
(PID.TID 0000.0001) %MON dynstat_sss_del2             =   8.7871100346282E-03
(PID.TID 0000.0001) %MON forcing_qnet_max             =   3.7252687988281E+03
(PID.TID 0000.0001) %MON forcing_qnet_min             =  -4.4551230468750E+03
(PID.TID 0000.0001) %MON forcing_qnet_mean            =  -1.7302450504940E+01
(PID.TID 0000.0001) %MON forcing_qnet_sd              =   5.1097747947121E+02
(PID.TID 0000.0001) %MON forcing_qnet_del2            =   7.5426236521188E+00
(PID.TID 0000.0001) %MON forcing_qsw_max              =   0.0000000000000E+00
(PID.TID 0000.0001) %MON forcing_qsw_min              =  -9.8439330583844E+01
(PID.TID 0000.0001) %MON forcing_qsw_mean             =  -1.4505264551996E+01
(PID.TID 0000.0001) %MON forcing_qsw_sd               =   2.3690768492481E+01
(PID.TID 0000.0001) %MON forcing_qsw_del2             =   1.3714430784774E-01
(PID.TID 0000.0001) %MON forcing_empmr_max            =   6.4063784666359E-03
(PID.TID 0000.0001) %MON forcing_empmr_min            =  -9.2091426253319E-02
(PID.TID 0000.0001) %MON forcing_empmr_mean           =  -4.1756134826213E-04
(PID.TID 0000.0001) %MON forcing_empmr_sd             =   4.0788606503744E-03
(PID.TID 0000.0001) %MON forcing_empmr_del2           =   1.6059289583012E-04
(PID.TID 0000.0001) %MON forcing_fu_max               =   6.6324362529079E-01
(PID.TID 0000.0001) %MON forcing_fu_min               =  -6.0416737420141E-01
(PID.TID 0000.0001) %MON forcing_fu_mean              =  -1.3957892815633E-03
(PID.TID 0000.0001) %MON forcing_fu_sd                =   8.9616634036576E-02
(PID.TID 0000.0001) %MON forcing_fu_del2              =   7.6207801858537E-04
(PID.TID 0000.0001) %MON forcing_fv_max               =   4.2917381354716E-01
(PID.TID 0000.0001) %MON forcing_fv_min               =  -4.1888504581544E-01
(PID.TID 0000.0001) %MON forcing_fv_mean              =  -6.3653450605241E-03
(PID.TID 0000.0001) %MON forcing_fv_sd                =   7.7613871073015E-02
(PID.TID 0000.0001) %MON forcing_fv_del2              =   6.4686460277302E-04
(PID.TID 0000.0001) %MON trAdv_CFL_u_max              =   1.4590671199346E-03
(PID.TID 0000.0001) %MON trAdv_CFL_v_max              =   2.0675116130512E-03
(PID.TID 0000.0001) %MON trAdv_CFL_w_max              =   2.5139634725565E-03
(PID.TID 0000.0001) %MON advcfl_uvel_max              =   1.5067625272745E-03
(PID.TID 0000.0001) %MON advcfl_vvel_max              =   2.0455050260628E-03
(PID.TID 0000.0001) %MON advcfl_wvel_max              =   3.2031800435937E-03
(PID.TID 0000.0001) %MON advcfl_W_hf_max              =   2.5139634725565E-03
(PID.TID 0000.0001) %MON pe_b_mean                    =   1.3824761181342E-05
(PID.TID 0000.0001) %MON ke_max                       =   1.4784266986174E-01
(PID.TID 0000.0001) %MON ke_mean                      =   2.8461068779914E-05
(PID.TID 0000.0001) %MON ke_vol                       =   1.3398150418867E+18
(PID.TID 0000.0001) %MON vort_r_min                   =  -3.3615714440899E-06
(PID.TID 0000.0001) %MON vort_r_max                   =   2.7307445407076E-06
(PID.TID 0000.0001) %MON vort_a_mean                  =  -2.0549865324846E-05
(PID.TID 0000.0001) %MON vort_a_sd                    =   7.5259437887271E-05
(PID.TID 0000.0001) %MON vort_p_mean                  =  -2.4783293147529E-05
(PID.TID 0000.0001) %MON vort_p_sd                    =   1.2810517368275E-04
(PID.TID 0000.0001) %MON surfExpan_theta_mean         =   7.9478794925459E-08
(PID.TID 0000.0001) %MON surfExpan_salt_mean          =   8.2625876062371E-07
(PID.TID 0000.0001) // =======================================================
(PID.TID 0000.0001) // End MONITOR dynamic field statistics
(PID.TID 0000.0001) // =======================================================
(PID.TID 0000.0001) // =======================================================
(PID.TID 0000.0001) // Begin MONITOR SEAICE statistics
(PID.TID 0000.0001) // =======================================================
(PID.TID 0000.0001) %MON seaice_tsnumber              =                    54
(PID.TID 0000.0001) %MON seaice_time_sec              =   4.8600000000000E+04
(PID.TID 0000.0001) %MON seaice_uice_max              =   2.7938024702997E-01
(PID.TID 0000.0001) %MON seaice_uice_min              =  -2.9285387613131E-01
(PID.TID 0000.0001) %MON seaice_uice_mean             =  -5.4793877792882E-03
(PID.TID 0000.0001) %MON seaice_uice_sd               =   3.6918392300704E-02
(PID.TID 0000.0001) %MON seaice_uice_del2             =   8.5149961870133E-04
(PID.TID 0000.0001) %MON seaice_vice_max              =   5.8227803624111E-01
(PID.TID 0000.0001) %MON seaice_vice_min              =  -5.4938024113394E-01
(PID.TID 0000.0001) %MON seaice_vice_mean             =  -1.0625102535561E-02
(PID.TID 0000.0001) %MON seaice_vice_sd               =   4.0935056612579E-02
(PID.TID 0000.0001) %MON seaice_vice_del2             =   8.3116133337397E-04
(PID.TID 0000.0001) %MON seaice_area_max              =   9.8960481042333E-01
(PID.TID 0000.0001) %MON seaice_area_min              =   0.0000000000000E+00
(PID.TID 0000.0001) %MON seaice_area_mean             =   6.3717086336241E-02
(PID.TID 0000.0001) %MON seaice_area_sd               =   2.2243817711233E-01
(PID.TID 0000.0001) %MON seaice_area_del2             =   1.5589467518519E-03
(PID.TID 0000.0001) %MON seaice_heff_max              =   8.2968229659761E+00
(PID.TID 0000.0001) %MON seaice_heff_min              =   0.0000000000000E+00
(PID.TID 0000.0001) %MON seaice_heff_mean             =   1.9641531624252E-01
(PID.TID 0000.0001) %MON seaice_heff_sd               =   9.5091507611014E-01
(PID.TID 0000.0001) %MON seaice_heff_del2             =   6.1427501203467E-03
(PID.TID 0000.0001) %MON seaice_hsnow_max             =   1.9936200921845E+00
(PID.TID 0000.0001) %MON seaice_hsnow_min             =   0.0000000000000E+00
(PID.TID 0000.0001) %MON seaice_hsnow_mean            =   2.1814506030899E-02
(PID.TID 0000.0001) %MON seaice_hsnow_sd              =   1.1645789271361E-01
(PID.TID 0000.0001) %MON seaice_hsnow_del2            =   1.4290076149328E-03
(PID.TID 0000.0001) // =======================================================
(PID.TID 0000.0001) // End MONITOR SEAICE statistics
(PID.TID 0000.0001) // =======================================================
 SEAICE_LSR: Residual Initial ipass,Uice,Vice=    1  2.68885735E-03  2.42557096E-03
 SEAICE_LSR (ipass=   1) iters,dU,Resid=     6  7.88154169E-05  3.25206479E-05
 SEAICE_LSR (ipass=   1) iters,dV,Resid=     6  3.91090978E-06  1.75694067E-05
 SEAICE_LSR: Residual Initial ipass,Uice,Vice=    2  1.76169049E-03  1.92794878E-03
 SEAICE_LSR (ipass=   2) iters,dU,Resid=     6  3.92938833E-05  2.29539141E-05
 SEAICE_LSR (ipass=   2) iters,dV,Resid=     6  2.22451320E-06  1.00617831E-05
 cg2d: Sum(rhs),rhsMax =  -5.33699933439903E+01  5.69882166974032E+01
(PID.TID 0000.0001)      cg2d_init_res =   1.96141612579888E-01
(PID.TID 0000.0001)      cg2d_iters(min,last) =      -1      10
(PID.TID 0000.0001)      cg2d_last_res =   8.92129297561940E-08
(PID.TID 0000.0001) // =======================================================
(PID.TID 0000.0001) // Begin MONITOR dynamic field statistics
(PID.TID 0000.0001) // =======================================================
(PID.TID 0000.0001) %MON time_tsnumber                =                    55
(PID.TID 0000.0001) %MON time_secondsf                =   4.9500000000000E+04
(PID.TID 0000.0001) %MON dynstat_eta_max              =   2.5396317454162E+00
(PID.TID 0000.0001) %MON dynstat_eta_min              =  -6.7088838590627E-01
(PID.TID 0000.0001) %MON dynstat_eta_mean             =   3.5341370657988E-02
(PID.TID 0000.0001) %MON dynstat_eta_sd               =   9.2285270176928E-02
(PID.TID 0000.0001) %MON dynstat_eta_del2             =   1.9279614010177E-03
(PID.TID 0000.0001) %MON dynstat_uvel_max             =   5.2878546463293E-01
(PID.TID 0000.0001) %MON dynstat_uvel_min             =  -4.8672064335878E-01
(PID.TID 0000.0001) %MON dynstat_uvel_mean            =  -1.1673221498171E-04
(PID.TID 0000.0001) %MON dynstat_uvel_sd              =   5.2176587844586E-03
(PID.TID 0000.0001) %MON dynstat_uvel_del2            =   8.4326809099988E-05
(PID.TID 0000.0001) %MON dynstat_vvel_max             =   6.7503816108168E-01
(PID.TID 0000.0001) %MON dynstat_vvel_min             =  -5.9534854070701E-01
(PID.TID 0000.0001) %MON dynstat_vvel_mean            =   8.2333814832998E-04
(PID.TID 0000.0001) %MON dynstat_vvel_sd              =   5.8369616347966E-03
(PID.TID 0000.0001) %MON dynstat_vvel_del2            =   8.1924942075866E-05
(PID.TID 0000.0001) %MON dynstat_wvel_max             =   1.3774826140972E-04
(PID.TID 0000.0001) %MON dynstat_wvel_min             =  -2.4496673872743E-04
(PID.TID 0000.0001) %MON dynstat_wvel_mean            =  -3.9424406382404E-07
(PID.TID 0000.0001) %MON dynstat_wvel_sd              =   7.3255352181443E-06
(PID.TID 0000.0001) %MON dynstat_wvel_del2            =   8.3689595660743E-08
(PID.TID 0000.0001) %MON dynstat_theta_max            =   2.1552026973903E+01
(PID.TID 0000.0001) %MON dynstat_theta_min            =   1.6178251002814E+01
(PID.TID 0000.0001) %MON dynstat_theta_mean           =   1.9997908657290E+01
(PID.TID 0000.0001) %MON dynstat_theta_sd             =   2.3948414447506E-02
(PID.TID 0000.0001) %MON dynstat_theta_del2           =   3.4723150723393E-04
(PID.TID 0000.0001) %MON dynstat_salt_max             =   3.5078447161630E+01
(PID.TID 0000.0001) %MON dynstat_salt_min             =   2.9578119138634E+01
(PID.TID 0000.0001) %MON dynstat_salt_mean            =   3.4999651551988E+01
(PID.TID 0000.0001) %MON dynstat_salt_sd              =   2.6547626110135E-02
(PID.TID 0000.0001) %MON dynstat_salt_del2            =   7.0610237148495E-04
(PID.TID 0000.0001) %MON dynstat_sst_max              =   2.1552026973903E+01
(PID.TID 0000.0001) %MON dynstat_sst_min              =   1.6178251002814E+01
(PID.TID 0000.0001) %MON dynstat_sst_mean             =   2.0049570276709E+01
(PID.TID 0000.0001) %MON dynstat_sst_sd               =   1.7366078364399E-01
(PID.TID 0000.0001) %MON dynstat_sst_del2             =   4.0263972599470E-03
(PID.TID 0000.0001) %MON dynstat_sss_max              =   3.5078447161630E+01
(PID.TID 0000.0001) %MON dynstat_sss_min              =   2.9578119138634E+01
(PID.TID 0000.0001) %MON dynstat_sss_mean             =   3.4982594756359E+01
(PID.TID 0000.0001) %MON dynstat_sss_sd               =   2.2661439834750E-01
(PID.TID 0000.0001) %MON dynstat_sss_del2             =   8.8674894087731E-03
(PID.TID 0000.0001) %MON forcing_qnet_max             =   3.6797797851562E+03
(PID.TID 0000.0001) %MON forcing_qnet_min             =  -4.4000761718750E+03
(PID.TID 0000.0001) %MON forcing_qnet_mean            =  -1.6966108620292E+01
(PID.TID 0000.0001) %MON forcing_qnet_sd              =   5.0817990607470E+02
(PID.TID 0000.0001) %MON forcing_qnet_del2            =   7.4696301144208E+00
(PID.TID 0000.0001) %MON forcing_qsw_max              =   0.0000000000000E+00
(PID.TID 0000.0001) %MON forcing_qsw_min              =  -9.9891997045355E+01
(PID.TID 0000.0001) %MON forcing_qsw_mean             =  -1.4604852958895E+01
(PID.TID 0000.0001) %MON forcing_qsw_sd               =   2.3785636823889E+01
(PID.TID 0000.0001) %MON forcing_qsw_del2             =   1.3709861274985E-01
(PID.TID 0000.0001) %MON forcing_empmr_max            =   6.3403490930796E-03
(PID.TID 0000.0001) %MON forcing_empmr_min            =  -9.1143250465393E-02
(PID.TID 0000.0001) %MON forcing_empmr_mean           =  -4.1591753742888E-04
(PID.TID 0000.0001) %MON forcing_empmr_sd             =   4.0374781954454E-03
(PID.TID 0000.0001) %MON forcing_empmr_del2           =   1.5893550405259E-04
(PID.TID 0000.0001) %MON forcing_fu_max               =   6.6141482762050E-01
(PID.TID 0000.0001) %MON forcing_fu_min               =  -6.0805776264169E-01
(PID.TID 0000.0001) %MON forcing_fu_mean              =  -1.4027834716841E-03
(PID.TID 0000.0001) %MON forcing_fu_sd                =   8.9388114248932E-02
(PID.TID 0000.0001) %MON forcing_fu_del2              =   7.5944085040211E-04
(PID.TID 0000.0001) %MON forcing_fv_max               =   4.2696316645012E-01
(PID.TID 0000.0001) %MON forcing_fv_min               =  -4.2073415064013E-01
(PID.TID 0000.0001) %MON forcing_fv_mean              =  -6.4664623335909E-03
(PID.TID 0000.0001) %MON forcing_fv_sd                =   7.7420100952196E-02
(PID.TID 0000.0001) %MON forcing_fv_del2              =   6.4588552799241E-04
(PID.TID 0000.0001) %MON trAdv_CFL_u_max              =   1.7101472831545E-03
(PID.TID 0000.0001) %MON trAdv_CFL_v_max              =   2.2299887529429E-03
(PID.TID 0000.0001) %MON trAdv_CFL_w_max              =   2.5318064281959E-03
(PID.TID 0000.0001) %MON advcfl_uvel_max              =   1.7633761234580E-03
(PID.TID 0000.0001) %MON advcfl_vvel_max              =   2.2028957534447E-03
(PID.TID 0000.0001) %MON advcfl_wvel_max              =   3.1702000161876E-03
(PID.TID 0000.0001) %MON advcfl_W_hf_max              =   2.5318064281959E-03
(PID.TID 0000.0001) %MON pe_b_mean                    =   1.3009438364278E-05
(PID.TID 0000.0001) %MON ke_max                       =   1.7727209410053E-01
(PID.TID 0000.0001) %MON ke_mean                      =   2.8635064159737E-05
(PID.TID 0000.0001) %MON ke_vol                       =   1.3398151740128E+18
(PID.TID 0000.0001) %MON vort_r_min                   =  -3.4983251170716E-06
(PID.TID 0000.0001) %MON vort_r_max                   =   2.8403162960034E-06
(PID.TID 0000.0001) %MON vort_a_mean                  =  -2.0549865324846E-05
(PID.TID 0000.0001) %MON vort_a_sd                    =   7.5259446234801E-05
(PID.TID 0000.0001) %MON vort_p_mean                  =  -2.4783290162281E-05
(PID.TID 0000.0001) %MON vort_p_sd                    =   1.2810515756597E-04
(PID.TID 0000.0001) %MON surfExpan_theta_mean         =   9.5909385159899E-08
(PID.TID 0000.0001) %MON surfExpan_salt_mean          =   8.3113171129479E-07
(PID.TID 0000.0001) // =======================================================
(PID.TID 0000.0001) // End MONITOR dynamic field statistics
(PID.TID 0000.0001) // =======================================================
(PID.TID 0000.0001) // =======================================================
(PID.TID 0000.0001) // Begin MONITOR SEAICE statistics
(PID.TID 0000.0001) // =======================================================
(PID.TID 0000.0001) %MON seaice_tsnumber              =                    55
(PID.TID 0000.0001) %MON seaice_time_sec              =   4.9500000000000E+04
(PID.TID 0000.0001) %MON seaice_uice_max              =   3.6600259055825E-01
(PID.TID 0000.0001) %MON seaice_uice_min              =  -3.2181301479186E-01
(PID.TID 0000.0001) %MON seaice_uice_mean             =  -5.3723573249783E-03
(PID.TID 0000.0001) %MON seaice_uice_sd               =   3.6798213740355E-02
(PID.TID 0000.0001) %MON seaice_uice_del2             =   8.6138282553791E-04
(PID.TID 0000.0001) %MON seaice_vice_max              =   6.4396746383750E-01
(PID.TID 0000.0001) %MON seaice_vice_min              =  -5.7098861903886E-01
(PID.TID 0000.0001) %MON seaice_vice_mean             =  -1.0837230204241E-02
(PID.TID 0000.0001) %MON seaice_vice_sd               =   4.0956190785854E-02
(PID.TID 0000.0001) %MON seaice_vice_del2             =   8.5352986634624E-04
(PID.TID 0000.0001) %MON seaice_area_max              =   9.8928497713290E-01
(PID.TID 0000.0001) %MON seaice_area_min              =   0.0000000000000E+00
(PID.TID 0000.0001) %MON seaice_area_mean             =   6.3624865626333E-02
(PID.TID 0000.0001) %MON seaice_area_sd               =   2.2218946336915E-01
(PID.TID 0000.0001) %MON seaice_area_del2             =   1.5546880161618E-03
(PID.TID 0000.0001) %MON seaice_heff_max              =   8.2942135625510E+00
(PID.TID 0000.0001) %MON seaice_heff_min              =   0.0000000000000E+00
(PID.TID 0000.0001) %MON seaice_heff_mean             =   1.9624301585710E-01
(PID.TID 0000.0001) %MON seaice_heff_sd               =   9.5042539892078E-01
(PID.TID 0000.0001) %MON seaice_heff_del2             =   6.1410966516168E-03
(PID.TID 0000.0001) %MON seaice_hsnow_max             =   1.9928924095517E+00
(PID.TID 0000.0001) %MON seaice_hsnow_min             =   0.0000000000000E+00
(PID.TID 0000.0001) %MON seaice_hsnow_mean            =   2.1796053942958E-02
(PID.TID 0000.0001) %MON seaice_hsnow_sd              =   1.1639942335277E-01
(PID.TID 0000.0001) %MON seaice_hsnow_del2            =   1.4283119193325E-03
(PID.TID 0000.0001) // =======================================================
(PID.TID 0000.0001) // End MONITOR SEAICE statistics
(PID.TID 0000.0001) // =======================================================
 SEAICE_LSR: Residual Initial ipass,Uice,Vice=    1  2.68094329E-03  2.32970126E-03
 SEAICE_LSR (ipass=   1) iters,dU,Resid=     6  5.46497441E-05  3.79894970E-05
 SEAICE_LSR (ipass=   1) iters,dV,Resid=     6  3.54148355E-06  1.59908664E-05
 SEAICE_LSR: Residual Initial ipass,Uice,Vice=    2  1.82622250E-03  1.95667537E-03
 SEAICE_LSR (ipass=   2) iters,dU,Resid=     6  2.61234870E-05  2.88602960E-05
 SEAICE_LSR (ipass=   2) iters,dV,Resid=     6  2.12512902E-06  9.77755880E-06
 cg2d: Sum(rhs),rhsMax =  -5.67215436338267E+01  5.41657257185947E+01
(PID.TID 0000.0001)      cg2d_init_res =   2.11056233210117E-01
(PID.TID 0000.0001)      cg2d_iters(min,last) =      -1      10
(PID.TID 0000.0001)      cg2d_last_res =   9.43225199000386E-08
(PID.TID 0000.0001) // =======================================================
(PID.TID 0000.0001) // Begin MONITOR dynamic field statistics
(PID.TID 0000.0001) // =======================================================
(PID.TID 0000.0001) %MON time_tsnumber                =                    56
(PID.TID 0000.0001) %MON time_secondsf                =   5.0400000000000E+04
(PID.TID 0000.0001) %MON dynstat_eta_max              =   2.4140863647125E+00
(PID.TID 0000.0001) %MON dynstat_eta_min              =  -6.4673722878641E-01
(PID.TID 0000.0001) %MON dynstat_eta_mean             =   3.5700457433914E-02
(PID.TID 0000.0001) %MON dynstat_eta_sd               =   8.8822882512001E-02
(PID.TID 0000.0001) %MON dynstat_eta_del2             =   1.8045305640252E-03
(PID.TID 0000.0001) %MON dynstat_uvel_max             =   5.9499308002158E-01
(PID.TID 0000.0001) %MON dynstat_uvel_min             =  -5.0924263271244E-01
(PID.TID 0000.0001) %MON dynstat_uvel_mean            =  -1.0412937274657E-04
(PID.TID 0000.0001) %MON dynstat_uvel_sd              =   5.2277883892088E-03
(PID.TID 0000.0001) %MON dynstat_uvel_del2            =   8.5160546647655E-05
(PID.TID 0000.0001) %MON dynstat_vvel_max             =   7.1020153782201E-01
(PID.TID 0000.0001) %MON dynstat_vvel_min             =  -6.1206412499676E-01
(PID.TID 0000.0001) %MON dynstat_vvel_mean            =   8.5350735964905E-04
(PID.TID 0000.0001) %MON dynstat_vvel_sd              =   5.8590164709479E-03
(PID.TID 0000.0001) %MON dynstat_vvel_del2            =   8.4411361957765E-05
(PID.TID 0000.0001) %MON dynstat_wvel_max             =   1.3547268825515E-04
(PID.TID 0000.0001) %MON dynstat_wvel_min             =  -2.4616823432210E-04
(PID.TID 0000.0001) %MON dynstat_wvel_mean            =  -3.9402886792094E-07
(PID.TID 0000.0001) %MON dynstat_wvel_sd              =   7.3190574900271E-06
(PID.TID 0000.0001) %MON dynstat_wvel_del2            =   8.3625314439868E-08
(PID.TID 0000.0001) %MON dynstat_theta_max            =   2.1572010739574E+01
(PID.TID 0000.0001) %MON dynstat_theta_min            =   1.6172986029768E+01
(PID.TID 0000.0001) %MON dynstat_theta_mean           =   1.9997909679054E+01
(PID.TID 0000.0001) %MON dynstat_theta_sd             =   2.4074751858903E-02
(PID.TID 0000.0001) %MON dynstat_theta_del2           =   3.4855055410968E-04
(PID.TID 0000.0001) %MON dynstat_salt_max             =   3.5078443267101E+01
(PID.TID 0000.0001) %MON dynstat_salt_min             =   2.9529355054621E+01
(PID.TID 0000.0001) %MON dynstat_salt_mean            =   3.4999648143417E+01
(PID.TID 0000.0001) %MON dynstat_salt_sd              =   2.6791591712474E-02
(PID.TID 0000.0001) %MON dynstat_salt_del2            =   7.1236006088170E-04
(PID.TID 0000.0001) %MON dynstat_sst_max              =   2.1572010739574E+01
(PID.TID 0000.0001) %MON dynstat_sst_min              =   1.6172986029768E+01
(PID.TID 0000.0001) %MON dynstat_sst_mean             =   2.0050353604361E+01
(PID.TID 0000.0001) %MON dynstat_sst_sd               =   1.7467010647477E-01
(PID.TID 0000.0001) %MON dynstat_sst_del2             =   4.0437417215447E-03
(PID.TID 0000.0001) %MON dynstat_sss_max              =   3.5078443267101E+01
(PID.TID 0000.0001) %MON dynstat_sss_min              =   2.9529355054621E+01
(PID.TID 0000.0001) %MON dynstat_sss_mean             =   3.4982402776647E+01
(PID.TID 0000.0001) %MON dynstat_sss_sd               =   2.2869193437146E-01
(PID.TID 0000.0001) %MON dynstat_sss_del2             =   8.9460950149345E-03
(PID.TID 0000.0001) %MON forcing_qnet_max             =   3.6359536132812E+03
(PID.TID 0000.0001) %MON forcing_qnet_min             =  -4.3457133789062E+03
(PID.TID 0000.0001) %MON forcing_qnet_mean            =  -1.6595710760925E+01
(PID.TID 0000.0001) %MON forcing_qnet_sd              =   5.0552840784220E+02
(PID.TID 0000.0001) %MON forcing_qnet_del2            =   7.3068476502456E+00
(PID.TID 0000.0001) %MON forcing_qsw_max              =   0.0000000000000E+00
(PID.TID 0000.0001) %MON forcing_qsw_min              =  -1.0090084899134E+02
(PID.TID 0000.0001) %MON forcing_qsw_mean             =  -1.4663950226644E+01
(PID.TID 0000.0001) %MON forcing_qsw_sd               =   2.3880069612960E+01
(PID.TID 0000.0001) %MON forcing_qsw_del2             =   1.3681979520492E-01
(PID.TID 0000.0001) %MON forcing_empmr_max            =   6.2751076184213E-03
(PID.TID 0000.0001) %MON forcing_empmr_min            =  -9.0203478932381E-02
(PID.TID 0000.0001) %MON forcing_empmr_mean           =  -4.1294979231432E-04
(PID.TID 0000.0001) %MON forcing_empmr_sd             =   3.9966042864412E-03
(PID.TID 0000.0001) %MON forcing_empmr_del2           =   1.5729778822028E-04
(PID.TID 0000.0001) %MON forcing_fu_max               =   6.5781228122687E-01
(PID.TID 0000.0001) %MON forcing_fu_min               =  -6.1070832916399E-01
(PID.TID 0000.0001) %MON forcing_fu_mean              =  -1.3975753141261E-03
(PID.TID 0000.0001) %MON forcing_fu_sd                =   8.9196547369784E-02
(PID.TID 0000.0001) %MON forcing_fu_del2              =   7.5714732211654E-04
(PID.TID 0000.0001) %MON forcing_fv_max               =   4.2481312747769E-01
(PID.TID 0000.0001) %MON forcing_fv_min               =  -4.2231521981939E-01
(PID.TID 0000.0001) %MON forcing_fv_mean              =  -6.5623183725323E-03
(PID.TID 0000.0001) %MON forcing_fv_sd                =   7.7187698343809E-02
(PID.TID 0000.0001) %MON forcing_fv_del2              =   6.4437602969873E-04
(PID.TID 0000.0001) %MON trAdv_CFL_u_max              =   1.9275635933324E-03
(PID.TID 0000.0001) %MON trAdv_CFL_v_max              =   2.3501514064037E-03
(PID.TID 0000.0001) %MON trAdv_CFL_w_max              =   2.5416999255477E-03
(PID.TID 0000.0001) %MON advcfl_uvel_max              =   1.9841630701047E-03
(PID.TID 0000.0001) %MON advcfl_vvel_max              =   2.3176466783019E-03
(PID.TID 0000.0001) %MON advcfl_wvel_max              =   3.1375123106915E-03
(PID.TID 0000.0001) %MON advcfl_W_hf_max              =   2.5416999255477E-03
(PID.TID 0000.0001) %MON pe_b_mean                    =   1.2208060417991E-05
(PID.TID 0000.0001) %MON ke_max                       =   2.0790517577471E-01
(PID.TID 0000.0001) %MON ke_mean                      =   2.8825564683446E-05
(PID.TID 0000.0001) %MON ke_vol                       =   1.3398153056188E+18
(PID.TID 0000.0001) %MON vort_r_min                   =  -3.6252757012124E-06
(PID.TID 0000.0001) %MON vort_r_max                   =   2.8986542630235E-06
(PID.TID 0000.0001) %MON vort_a_mean                  =  -2.0549865324846E-05
(PID.TID 0000.0001) %MON vort_a_sd                    =   7.5259453901021E-05
(PID.TID 0000.0001) %MON vort_p_mean                  =  -2.4783287183684E-05
(PID.TID 0000.0001) %MON vort_p_sd                    =   1.2810514883505E-04
(PID.TID 0000.0001) %MON surfExpan_theta_mean         =   1.0627004389507E-07
(PID.TID 0000.0001) %MON surfExpan_salt_mean          =   8.3605716160476E-07
(PID.TID 0000.0001) // =======================================================
(PID.TID 0000.0001) // End MONITOR dynamic field statistics
(PID.TID 0000.0001) // =======================================================
(PID.TID 0000.0001) // =======================================================
(PID.TID 0000.0001) // Begin MONITOR SEAICE statistics
(PID.TID 0000.0001) // =======================================================
(PID.TID 0000.0001) %MON seaice_tsnumber              =                    56
(PID.TID 0000.0001) %MON seaice_time_sec              =   5.0400000000000E+04
(PID.TID 0000.0001) %MON seaice_uice_max              =   4.4706557434756E-01
(PID.TID 0000.0001) %MON seaice_uice_min              =  -3.5111179868349E-01
(PID.TID 0000.0001) %MON seaice_uice_mean             =  -5.2684008466905E-03
(PID.TID 0000.0001) %MON seaice_uice_sd               =   3.6795201432365E-02
(PID.TID 0000.0001) %MON seaice_uice_del2             =   8.7138152531955E-04
(PID.TID 0000.0001) %MON seaice_vice_max              =   6.9273988396522E-01
(PID.TID 0000.0001) %MON seaice_vice_min              =  -5.8927162874338E-01
(PID.TID 0000.0001) %MON seaice_vice_mean             =  -1.1043359039406E-02
(PID.TID 0000.0001) %MON seaice_vice_sd               =   4.0996788041867E-02
(PID.TID 0000.0001) %MON seaice_vice_del2             =   8.7861729461724E-04
(PID.TID 0000.0001) %MON seaice_area_max              =   9.8896203774192E-01
(PID.TID 0000.0001) %MON seaice_area_min              =   0.0000000000000E+00
(PID.TID 0000.0001) %MON seaice_area_mean             =   6.3532778560437E-02
(PID.TID 0000.0001) %MON seaice_area_sd               =   2.2194117822166E-01
(PID.TID 0000.0001) %MON seaice_area_del2             =   1.5504592603942E-03
(PID.TID 0000.0001) %MON seaice_heff_max              =   8.2916037994616E+00
(PID.TID 0000.0001) %MON seaice_heff_min              =   0.0000000000000E+00
(PID.TID 0000.0001) %MON seaice_heff_mean             =   1.9607079860300E-01
(PID.TID 0000.0001) %MON seaice_heff_sd               =   9.4993564917202E-01
(PID.TID 0000.0001) %MON seaice_heff_del2             =   6.1394469020648E-03
(PID.TID 0000.0001) %MON seaice_hsnow_max             =   1.9921671627078E+00
(PID.TID 0000.0001) %MON seaice_hsnow_min             =   0.0000000000000E+00
(PID.TID 0000.0001) %MON seaice_hsnow_mean            =   2.1777322565045E-02
(PID.TID 0000.0001) %MON seaice_hsnow_sd              =   1.1633969058124E-01
(PID.TID 0000.0001) %MON seaice_hsnow_del2            =   1.4276380244274E-03
(PID.TID 0000.0001) // =======================================================
(PID.TID 0000.0001) // End MONITOR SEAICE statistics
(PID.TID 0000.0001) // =======================================================
 Compute Stats, Diag. #    211  SIarea    vol(   0 ): 1.456E+15  Parms: SM      M1      
 Compute Stats, Diag. #    214  SIheff    vol(   0 ): 1.456E+15  Parms: SM      M1      
 Compute Stats, Diag. #    216  SIhsnow   vol(   0 ): 1.456E+15  Parms: SM      M1      
 Compute Stats, Diag. #     83  sIceLoad  vol(   0 ): 1.456E+15  Parms: SM      U1      
 Compute Stats, Diag. #    220  SIuice    vol(   0 ): 1.383E+15  Parms: UU      M1      
 Compute Stats, Diag. #    221  SIvice    vol(   0 ): 1.391E+15  Parms: VV      M1      
 Compute Stats, Diag. #    222  SItaux    vol(   0 ): 1.383E+15  Parms: UU      U1      
 Compute Stats, Diag. #    223  SItauy    vol(   0 ): 1.391E+15  Parms: VV      U1      
 Compute Stats, Diag. #    282  SIareaN   vol(   0 ): 7.278E+15  Parms: SM      MX      
 Compute Stats, Diag. #    281  SIheffN   vol(   0 ): 7.278E+15  Parms: SM      MX      
 Compute Stats, Diag. #    283  SIhsnowN  vol(   0 ): 7.278E+15  Parms: SM      MX      
 Compute Stats, Diag. #    287  SIqSnow   vol(   0 ): 7.278E+15  Parms: SM      MX      
 Compute Stats, Diag. #    286  SIqIce    vol(   0 ): 2.911E+16  Parms: SM      MX      
 Compute Stats, Diag. #    288  SImeltPd  vol(   0 ): 7.278E+15  Parms: SM      MX      
 Compute Stats, Diag. #    285  SItIces   vol(   0 ): 7.278E+15  Parms: SM      MX      
 Compute Stats, Diag. #    289  SIiceAge  vol(   0 ): 7.278E+15  Parms: SM      MX      
 Compute Stats, Diag. #    290  SI_dArea  vol(   0 ): 7.278E+15  Parms: SM      MX      
 Compute Stats, Diag. #    291  SI_dHeff  vol(   0 ): 7.278E+15  Parms: SM      MX      
 Compute Stats, Diag. #    292  SI_dHsnw  vol(   0 ): 7.278E+15  Parms: SM      MX      
 Compute Stats, Diag. #    295  SI_dQSnw  vol(   0 ): 7.278E+15  Parms: SM      MX      
 Compute Stats, Diag. #    294  SI_dQIce  vol(   0 ): 2.911E+16  Parms: SM      MX      
 SEAICE_LSR: Residual Initial ipass,Uice,Vice=    1  2.73095497E-03  2.29715478E-03
 SEAICE_LSR (ipass=   1) iters,dU,Resid=     6  3.65501930E-05  4.68778085E-05
 SEAICE_LSR (ipass=   1) iters,dV,Resid=     6  3.12104789E-06  1.42795413E-05
 SEAICE_LSR: Residual Initial ipass,Uice,Vice=    2  1.75753551E-03  1.84426002E-03
 SEAICE_LSR (ipass=   2) iters,dU,Resid=     6  1.68723551E-05  3.49545898E-05
 SEAICE_LSR (ipass=   2) iters,dV,Resid=     6  1.75938108E-06  8.13324214E-06
 cg2d: Sum(rhs),rhsMax =  -6.07460956886967E+01  5.10830509226960E+01
(PID.TID 0000.0001)      cg2d_init_res =   2.27534252284857E-01
(PID.TID 0000.0001)      cg2d_iters(min,last) =      -1      10
(PID.TID 0000.0001)      cg2d_last_res =   9.65101888873250E-08
(PID.TID 0000.0001) // =======================================================
(PID.TID 0000.0001) // Begin MONITOR dynamic field statistics
(PID.TID 0000.0001) // =======================================================
(PID.TID 0000.0001) %MON time_tsnumber                =                    57
(PID.TID 0000.0001) %MON time_secondsf                =   5.1300000000000E+04
(PID.TID 0000.0001) %MON dynstat_eta_max              =   2.2769753733933E+00
(PID.TID 0000.0001) %MON dynstat_eta_min              =  -6.8507215215104E-01
(PID.TID 0000.0001) %MON dynstat_eta_mean             =   3.6057562971741E-02
(PID.TID 0000.0001) %MON dynstat_eta_sd               =   8.5419458075072E-02
(PID.TID 0000.0001) %MON dynstat_eta_del2             =   1.6777083414281E-03
(PID.TID 0000.0001) %MON dynstat_uvel_max             =   6.4962777093613E-01
(PID.TID 0000.0001) %MON dynstat_uvel_min             =  -5.3142339476476E-01
(PID.TID 0000.0001) %MON dynstat_uvel_mean            =  -9.1047148743739E-05
(PID.TID 0000.0001) %MON dynstat_uvel_sd              =   5.2469015050152E-03
(PID.TID 0000.0001) %MON dynstat_uvel_del2            =   8.5789616165613E-05
(PID.TID 0000.0001) %MON dynstat_vvel_max             =   7.3230418971322E-01
(PID.TID 0000.0001) %MON dynstat_vvel_min             =  -6.2563704386997E-01
(PID.TID 0000.0001) %MON dynstat_vvel_mean            =   8.8006524614682E-04
(PID.TID 0000.0001) %MON dynstat_vvel_sd              =   5.8712958441802E-03
(PID.TID 0000.0001) %MON dynstat_vvel_del2            =   8.6762333657474E-05
(PID.TID 0000.0001) %MON dynstat_wvel_max             =   1.3600144672124E-04
(PID.TID 0000.0001) %MON dynstat_wvel_min             =  -2.4660589301539E-04
(PID.TID 0000.0001) %MON dynstat_wvel_mean            =  -3.9040491038317E-07
(PID.TID 0000.0001) %MON dynstat_wvel_sd              =   7.3017300529701E-06
(PID.TID 0000.0001) %MON dynstat_wvel_del2            =   8.3401155502271E-08
(PID.TID 0000.0001) %MON dynstat_theta_max            =   2.1591769878151E+01
(PID.TID 0000.0001) %MON dynstat_theta_min            =   1.6167262751836E+01
(PID.TID 0000.0001) %MON dynstat_theta_mean           =   1.9997910807276E+01
(PID.TID 0000.0001) %MON dynstat_theta_sd             =   2.4201252032043E-02
(PID.TID 0000.0001) %MON dynstat_theta_del2           =   3.4987619058487E-04
(PID.TID 0000.0001) %MON dynstat_salt_max             =   3.5078438790010E+01
(PID.TID 0000.0001) %MON dynstat_salt_min             =   2.9481640998415E+01
(PID.TID 0000.0001) %MON dynstat_salt_mean            =   3.4999644771214E+01
(PID.TID 0000.0001) %MON dynstat_salt_sd              =   2.7030566421324E-02
(PID.TID 0000.0001) %MON dynstat_salt_del2            =   7.1847893868138E-04
(PID.TID 0000.0001) %MON dynstat_sst_max              =   2.1591769878151E+01
(PID.TID 0000.0001) %MON dynstat_sst_min              =   1.6167262751836E+01
(PID.TID 0000.0001) %MON dynstat_sst_mean             =   2.0051148052295E+01
(PID.TID 0000.0001) %MON dynstat_sst_sd               =   1.7567804689383E-01
(PID.TID 0000.0001) %MON dynstat_sst_del2             =   4.0612148781515E-03
(PID.TID 0000.0001) %MON dynstat_sss_max              =   3.5078438790010E+01
(PID.TID 0000.0001) %MON dynstat_sss_min              =   2.9481640998415E+01
(PID.TID 0000.0001) %MON dynstat_sss_mean             =   3.4982217336536E+01
(PID.TID 0000.0001) %MON dynstat_sss_sd               =   2.3072795376362E-01
(PID.TID 0000.0001) %MON dynstat_sss_del2             =   9.0229553982186E-03
(PID.TID 0000.0001) %MON forcing_qnet_max             =   3.5937553710938E+03
(PID.TID 0000.0001) %MON forcing_qnet_min             =  -4.2931982421875E+03
(PID.TID 0000.0001) %MON forcing_qnet_mean            =  -1.8355394166290E+01
(PID.TID 0000.0001) %MON forcing_qnet_sd              =   5.0280834400837E+02
(PID.TID 0000.0001) %MON forcing_qnet_del2            =   7.2136041200065E+00
(PID.TID 0000.0001) %MON forcing_qsw_max              =   0.0000000000000E+00
(PID.TID 0000.0001) %MON forcing_qsw_min              =  -1.0204992455724E+02
(PID.TID 0000.0001) %MON forcing_qsw_mean             =  -1.4931788499050E+01
(PID.TID 0000.0001) %MON forcing_qsw_sd               =   2.4444157255997E+01
(PID.TID 0000.0001) %MON forcing_qsw_del2             =   1.3469739027717E-01
(PID.TID 0000.0001) %MON forcing_empmr_max            =   6.2104561366141E-03
(PID.TID 0000.0001) %MON forcing_empmr_min            =  -8.9274607598782E-02
(PID.TID 0000.0001) %MON forcing_empmr_mean           =  -4.1067136850107E-04
(PID.TID 0000.0001) %MON forcing_empmr_sd             =   3.9560916835482E-03
(PID.TID 0000.0001) %MON forcing_empmr_del2           =   1.5567736168332E-04
(PID.TID 0000.0001) %MON forcing_fu_max               =   6.5006169125969E-01
(PID.TID 0000.0001) %MON forcing_fu_min               =  -6.1417538365125E-01
(PID.TID 0000.0001) %MON forcing_fu_mean              =  -1.3838090044285E-03
(PID.TID 0000.0001) %MON forcing_fu_sd                =   8.8979419066039E-02
(PID.TID 0000.0001) %MON forcing_fu_del2              =   7.5450440456921E-04
(PID.TID 0000.0001) %MON forcing_fv_max               =   4.2268077262704E-01
(PID.TID 0000.0001) %MON forcing_fv_min               =  -4.2235053397955E-01
(PID.TID 0000.0001) %MON forcing_fv_mean              =  -6.6418155124367E-03
(PID.TID 0000.0001) %MON forcing_fv_sd                =   7.6911754824495E-02
(PID.TID 0000.0001) %MON forcing_fv_del2              =   6.4252190196276E-04
(PID.TID 0000.0001) %MON trAdv_CFL_u_max              =   2.1085055357206E-03
(PID.TID 0000.0001) %MON trAdv_CFL_v_max              =   2.4277741176107E-03
(PID.TID 0000.0001) %MON trAdv_CFL_w_max              =   2.5439444990406E-03
(PID.TID 0000.0001) %MON advcfl_uvel_max              =   2.1663570143692E-03
(PID.TID 0000.0001) %MON advcfl_vvel_max              =   2.3897756938127E-03
(PID.TID 0000.0001) %MON advcfl_wvel_max              =   3.1052037425663E-03
(PID.TID 0000.0001) %MON advcfl_W_hf_max              =   2.5439444990406E-03
(PID.TID 0000.0001) %MON pe_b_mean                    =   1.1452190959965E-05
(PID.TID 0000.0001) %MON ke_max                       =   2.3299174647723E-01
(PID.TID 0000.0001) %MON ke_mean                      =   2.9004571572489E-05
(PID.TID 0000.0001) %MON ke_vol                       =   1.3398154362857E+18
(PID.TID 0000.0001) %MON vort_r_min                   =  -3.7409869438557E-06
(PID.TID 0000.0001) %MON vort_r_max                   =   2.9073187342251E-06
(PID.TID 0000.0001) %MON vort_a_mean                  =  -2.0549865324846E-05
(PID.TID 0000.0001) %MON vort_a_sd                    =   7.5259460838873E-05
(PID.TID 0000.0001) %MON vort_p_mean                  =  -2.4783284236049E-05
(PID.TID 0000.0001) %MON vort_p_sd                    =   1.2810514711954E-04
(PID.TID 0000.0001) %MON surfExpan_theta_mean         =   1.1081034242023E-07
(PID.TID 0000.0001) %MON surfExpan_salt_mean          =   8.4087218934257E-07
(PID.TID 0000.0001) // =======================================================
(PID.TID 0000.0001) // End MONITOR dynamic field statistics
(PID.TID 0000.0001) // =======================================================
(PID.TID 0000.0001) // =======================================================
(PID.TID 0000.0001) // Begin MONITOR SEAICE statistics
(PID.TID 0000.0001) // =======================================================
(PID.TID 0000.0001) %MON seaice_tsnumber              =                    57
(PID.TID 0000.0001) %MON seaice_time_sec              =   5.1300000000000E+04
(PID.TID 0000.0001) %MON seaice_uice_max              =   5.1729398726924E-01
(PID.TID 0000.0001) %MON seaice_uice_min              =  -3.8024014035644E-01
(PID.TID 0000.0001) %MON seaice_uice_mean             =  -5.1619256788822E-03
(PID.TID 0000.0001) %MON seaice_uice_sd               =   3.6903960421207E-02
(PID.TID 0000.0001) %MON seaice_uice_del2             =   8.8117416681907E-04
(PID.TID 0000.0001) %MON seaice_vice_max              =   7.2827471892643E-01
(PID.TID 0000.0001) %MON seaice_vice_min              =  -6.0470303059491E-01
(PID.TID 0000.0001) %MON seaice_vice_mean             =  -1.1233993558047E-02
(PID.TID 0000.0001) %MON seaice_vice_sd               =   4.1028542259602E-02
(PID.TID 0000.0001) %MON seaice_vice_del2             =   9.0366787505521E-04
(PID.TID 0000.0001) %MON seaice_area_max              =   9.8863608313802E-01
(PID.TID 0000.0001) %MON seaice_area_min              =   0.0000000000000E+00
(PID.TID 0000.0001) %MON seaice_area_mean             =   6.3440838984316E-02
(PID.TID 0000.0001) %MON seaice_area_sd               =   2.2169332793875E-01
(PID.TID 0000.0001) %MON seaice_area_del2             =   1.5462719205042E-03
(PID.TID 0000.0001) %MON seaice_heff_max              =   8.2889937576545E+00
(PID.TID 0000.0001) %MON seaice_heff_min              =   0.0000000000000E+00
(PID.TID 0000.0001) %MON seaice_heff_mean             =   1.9589874132039E-01
(PID.TID 0000.0001) %MON seaice_heff_sd               =   9.4944590043689E-01
(PID.TID 0000.0001) %MON seaice_heff_del2             =   6.1378020195118E-03
(PID.TID 0000.0001) %MON seaice_hsnow_max             =   1.9914417292498E+00
(PID.TID 0000.0001) %MON seaice_hsnow_min             =   0.0000000000000E+00
(PID.TID 0000.0001) %MON seaice_hsnow_mean            =   2.1758842784700E-02
(PID.TID 0000.0001) %MON seaice_hsnow_sd              =   1.1628092248005E-01
(PID.TID 0000.0001) %MON seaice_hsnow_del2            =   1.4269486110514E-03
(PID.TID 0000.0001) // =======================================================
(PID.TID 0000.0001) // End MONITOR SEAICE statistics
(PID.TID 0000.0001) // =======================================================
 Computing Diagnostic #    211  SIarea       Counter:       1   Parms: SM      M1      
 Computing Diagnostic #    214  SIheff       Counter:       1   Parms: SM      M1      
 Computing Diagnostic #    216  SIhsnow      Counter:       1   Parms: SM      M1      
 Computing Diagnostic #     83  sIceLoad     Counter:       1   Parms: SM      U1      
 Computing Diagnostic #    220  SIuice       Counter:       1   Parms: UU      M1      
           Vector  Mate for  SIuice       Diagnostic #    221  SIvice   exists 
 Computing Diagnostic #    221  SIvice       Counter:       1   Parms: VV      M1      
           Vector  Mate for  SIvice       Diagnostic #    220  SIuice   exists 
 Computing Diagnostic #    222  SItaux       Counter:       1   Parms: UU      U1      
           Vector  Mate for  SItaux       Diagnostic #    223  SItauy   exists 
 Computing Diagnostic #    223  SItauy       Counter:       1   Parms: VV      U1      
           Vector  Mate for  SItauy       Diagnostic #    222  SItaux   exists 
 Computing Diagnostic #    284  CPLoWGHT     Counter:       1   Parms: SM      M1      
 Computing Diagnostic #    282  SIareaN      Counter:       1   Parms: SM      MX      
 Computing Diagnostic #    281  SIheffN      Counter:       1   Parms: SM      MX      
 Computing Diagnostic #    283  SIhsnowN     Counter:       1   Parms: SM      MX      
 Computing Diagnostic #    287  SIqSnow      Counter:       1   Parms: SM      MX      
 Computing Diagnostic #    288  SImeltPd     Counter:       1   Parms: SM      MX      
 Computing Diagnostic #    285  SItIces      Counter:       1   Parms: SM      MX      
 Computing Diagnostic #    289  SIiceAge     Counter:       1   Parms: SM      MX      
 Computing Diagnostic #    290  SI_dArea     Counter:       1   Parms: SM      MX      
 Computing Diagnostic #    291  SI_dHeff     Counter:       1   Parms: SM      MX      
 Computing Diagnostic #    292  SI_dHsnw     Counter:       1   Parms: SM      MX      
 Computing Diagnostic #    295  SI_dQSnw     Counter:       1   Parms: SM      MX      
 Computing Diagnostic #    286  SIqIce       Counter:       1   Parms: SM      MX      
 Computing Diagnostic #    294  SI_dQIce     Counter:       1   Parms: SM      MX      
 SEAICE_LSR: Residual Initial ipass,Uice,Vice=    1  2.71719077E-03  2.08342017E-03
 SEAICE_LSR (ipass=   1) iters,dU,Resid=     6  2.16241647E-05  5.43675810E-05
 SEAICE_LSR (ipass=   1) iters,dV,Resid=     6  2.04037482E-06  9.23228482E-06
 SEAICE_LSR: Residual Initial ipass,Uice,Vice=    2  1.77389488E-03  1.42186822E-03
 SEAICE_LSR (ipass=   2) iters,dU,Resid=     4  7.64695327E-05  7.62955767E-05
 SEAICE_LSR (ipass=   2) iters,dV,Resid=     4  1.64767379E-05  1.20130533E-05
 cg2d: Sum(rhs),rhsMax =  -6.55991626226378E+01  4.77699444206908E+01
(PID.TID 0000.0001)      cg2d_init_res =   2.45832676320126E-01
(PID.TID 0000.0001)      cg2d_iters(min,last) =      -1      10
(PID.TID 0000.0001)      cg2d_last_res =   9.67241900915022E-08
(PID.TID 0000.0001) // =======================================================
(PID.TID 0000.0001) // Begin MONITOR dynamic field statistics
(PID.TID 0000.0001) // =======================================================
(PID.TID 0000.0001) %MON time_tsnumber                =                    58
(PID.TID 0000.0001) %MON time_secondsf                =   5.2200000000000E+04
(PID.TID 0000.0001) %MON dynstat_eta_max              =   2.1296182777432E+00
(PID.TID 0000.0001) %MON dynstat_eta_min              =  -7.1262279261410E-01
(PID.TID 0000.0001) %MON dynstat_eta_mean             =   3.6412810823829E-02
(PID.TID 0000.0001) %MON dynstat_eta_sd               =   8.2203503418162E-02
(PID.TID 0000.0001) %MON dynstat_eta_del2             =   1.5525811215569E-03
(PID.TID 0000.0001) %MON dynstat_uvel_max             =   6.9211481033917E-01
(PID.TID 0000.0001) %MON dynstat_uvel_min             =  -5.5297658458150E-01
(PID.TID 0000.0001) %MON dynstat_uvel_mean            =  -7.7755416541304E-05
(PID.TID 0000.0001) %MON dynstat_uvel_sd              =   5.2723476644741E-03
(PID.TID 0000.0001) %MON dynstat_uvel_del2            =   8.6197664908633E-05
(PID.TID 0000.0001) %MON dynstat_vvel_max             =   7.4158326110153E-01
(PID.TID 0000.0001) %MON dynstat_vvel_min             =  -6.3591504373815E-01
(PID.TID 0000.0001) %MON dynstat_vvel_mean            =   9.0281655421218E-04
(PID.TID 0000.0001) %MON dynstat_vvel_sd              =   5.8720305286823E-03
(PID.TID 0000.0001) %MON dynstat_vvel_del2            =   8.8810432064444E-05
(PID.TID 0000.0001) %MON dynstat_wvel_max             =   1.3635895033354E-04
(PID.TID 0000.0001) %MON dynstat_wvel_min             =  -2.4631346305270E-04
(PID.TID 0000.0001) %MON dynstat_wvel_mean            =  -3.8346506874086E-07
(PID.TID 0000.0001) %MON dynstat_wvel_sd              =   7.2748641787479E-06
(PID.TID 0000.0001) %MON dynstat_wvel_del2            =   8.3033744266135E-08
(PID.TID 0000.0001) %MON dynstat_theta_max            =   2.1611297749237E+01
(PID.TID 0000.0001) %MON dynstat_theta_min            =   1.6161076668213E+01
(PID.TID 0000.0001) %MON dynstat_theta_mean           =   1.9997911952229E+01
(PID.TID 0000.0001) %MON dynstat_theta_sd             =   2.4327220549690E-02
(PID.TID 0000.0001) %MON dynstat_theta_del2           =   3.5122620242956E-04
(PID.TID 0000.0001) %MON dynstat_salt_max             =   3.5078433671964E+01
(PID.TID 0000.0001) %MON dynstat_salt_min             =   2.9434953590530E+01
(PID.TID 0000.0001) %MON dynstat_salt_mean            =   3.4999641426670E+01
(PID.TID 0000.0001) %MON dynstat_salt_sd              =   2.7264580581542E-02
(PID.TID 0000.0001) %MON dynstat_salt_del2            =   7.2446037859251E-04
(PID.TID 0000.0001) %MON dynstat_sst_max              =   2.1611297749237E+01
(PID.TID 0000.0001) %MON dynstat_sst_min              =   1.6161076668213E+01
(PID.TID 0000.0001) %MON dynstat_sst_mean             =   2.0051934300762E+01
(PID.TID 0000.0001) %MON dynstat_sst_sd               =   1.7668236099773E-01
(PID.TID 0000.0001) %MON dynstat_sst_del2             =   4.0784961125612E-03
(PID.TID 0000.0001) %MON dynstat_sss_max              =   3.5078433671964E+01
(PID.TID 0000.0001) %MON dynstat_sss_min              =   2.9434953590530E+01
(PID.TID 0000.0001) %MON dynstat_sss_mean             =   3.4982032262467E+01
(PID.TID 0000.0001) %MON dynstat_sss_sd               =   2.3272227236873E-01
(PID.TID 0000.0001) %MON dynstat_sss_del2             =   9.0980866782220E-03
(PID.TID 0000.0001) %MON forcing_qnet_max             =   3.5509846191406E+03
(PID.TID 0000.0001) %MON forcing_qnet_min             =  -4.2390004882812E+03
(PID.TID 0000.0001) %MON forcing_qnet_mean            =  -1.8599436603768E+01
(PID.TID 0000.0001) %MON forcing_qnet_sd              =   5.0061407289560E+02
(PID.TID 0000.0001) %MON forcing_qnet_del2            =   7.1414599125941E+00
(PID.TID 0000.0001) %MON forcing_qsw_max              =   0.0000000000000E+00
(PID.TID 0000.0001) %MON forcing_qsw_min              =  -1.0216116306387E+02
(PID.TID 0000.0001) %MON forcing_qsw_mean             =  -1.5061994062402E+01
(PID.TID 0000.0001) %MON forcing_qsw_sd               =   2.4761817866648E+01
(PID.TID 0000.0001) %MON forcing_qsw_del2             =   1.3455694180695E-01
(PID.TID 0000.0001) %MON forcing_empmr_max            =   6.1464938335121E-03
(PID.TID 0000.0001) %MON forcing_empmr_min            =  -8.8354967534542E-02
(PID.TID 0000.0001) %MON forcing_empmr_mean           =  -4.0853502990116E-04
(PID.TID 0000.0001) %MON forcing_empmr_sd             =   3.9160343481763E-03
(PID.TID 0000.0001) %MON forcing_empmr_del2           =   1.5407283008667E-04
(PID.TID 0000.0001) %MON forcing_fu_max               =   6.4487335185743E-01
(PID.TID 0000.0001) %MON forcing_fu_min               =  -6.1577530417881E-01
(PID.TID 0000.0001) %MON forcing_fu_mean              =  -1.3483279425454E-03
(PID.TID 0000.0001) %MON forcing_fu_sd                =   8.8755652473008E-02
(PID.TID 0000.0001) %MON forcing_fu_del2              =   7.5178328976736E-04
(PID.TID 0000.0001) %MON forcing_fv_max               =   4.2049013474457E-01
(PID.TID 0000.0001) %MON forcing_fv_min               =  -4.2275320471761E-01
(PID.TID 0000.0001) %MON forcing_fv_mean              =  -6.7097253691533E-03
(PID.TID 0000.0001) %MON forcing_fv_sd                =   7.6626937954447E-02
(PID.TID 0000.0001) %MON forcing_fv_del2              =   6.4045630195363E-04
(PID.TID 0000.0001) %MON trAdv_CFL_u_max              =   2.2509023578419E-03
(PID.TID 0000.0001) %MON trAdv_CFL_v_max              =   2.4633467156248E-03
(PID.TID 0000.0001) %MON trAdv_CFL_w_max              =   2.5388901806251E-03
(PID.TID 0000.0001) %MON advcfl_uvel_max              =   2.3080413757042E-03
(PID.TID 0000.0001) %MON advcfl_vvel_max              =   2.4200566884819E-03
(PID.TID 0000.0001) %MON advcfl_wvel_max              =   3.0732162620710E-03
(PID.TID 0000.0001) %MON advcfl_W_hf_max              =   2.5388901806251E-03
(PID.TID 0000.0001) %MON pe_b_mean                    =   1.0768355584606E-05
(PID.TID 0000.0001) %MON ke_max                       =   2.5100482370676E-01
(PID.TID 0000.0001) %MON ke_mean                      =   2.9149346525357E-05
(PID.TID 0000.0001) %MON ke_vol                       =   1.3398155662317E+18
(PID.TID 0000.0001) %MON vort_r_min                   =  -3.8440391091493E-06
(PID.TID 0000.0001) %MON vort_r_max                   =   2.9609451630642E-06
(PID.TID 0000.0001) %MON vort_a_mean                  =  -2.0549865324846E-05
(PID.TID 0000.0001) %MON vort_a_sd                    =   7.5259466998305E-05
(PID.TID 0000.0001) %MON vort_p_mean                  =  -2.4783281327633E-05
(PID.TID 0000.0001) %MON vort_p_sd                    =   1.2810515164147E-04
(PID.TID 0000.0001) %MON surfExpan_theta_mean         =   1.0978701257795E-07
(PID.TID 0000.0001) %MON surfExpan_salt_mean          =   8.4541500572559E-07
(PID.TID 0000.0001) // =======================================================
(PID.TID 0000.0001) // End MONITOR dynamic field statistics
(PID.TID 0000.0001) // =======================================================
(PID.TID 0000.0001) // =======================================================
(PID.TID 0000.0001) // Begin MONITOR SEAICE statistics
(PID.TID 0000.0001) // =======================================================
(PID.TID 0000.0001) %MON seaice_tsnumber              =                    58
(PID.TID 0000.0001) %MON seaice_time_sec              =   5.2200000000000E+04
(PID.TID 0000.0001) %MON seaice_uice_max              =   5.7578707838621E-01
(PID.TID 0000.0001) %MON seaice_uice_min              =  -4.0864549947009E-01
(PID.TID 0000.0001) %MON seaice_uice_mean             =  -5.0433766619831E-03
(PID.TID 0000.0001) %MON seaice_uice_sd               =   3.7103761265392E-02
(PID.TID 0000.0001) %MON seaice_uice_del2             =   8.8977164098353E-04
(PID.TID 0000.0001) %MON seaice_vice_max              =   7.5054043308820E-01
(PID.TID 0000.0001) %MON seaice_vice_min              =  -6.1796877165424E-01
(PID.TID 0000.0001) %MON seaice_vice_mean             =  -1.1400709071336E-02
(PID.TID 0000.0001) %MON seaice_vice_sd               =   4.1029897383183E-02
(PID.TID 0000.0001) %MON seaice_vice_del2             =   9.2666025461390E-04
(PID.TID 0000.0001) %MON seaice_area_max              =   9.8830711359285E-01
(PID.TID 0000.0001) %MON seaice_area_min              =   0.0000000000000E+00
(PID.TID 0000.0001) %MON seaice_area_mean             =   6.3349051440794E-02
(PID.TID 0000.0001) %MON seaice_area_sd               =   2.2144587827455E-01
(PID.TID 0000.0001) %MON seaice_area_del2             =   1.5421072530280E-03
(PID.TID 0000.0001) %MON seaice_heff_max              =   8.2863840478465E+00
(PID.TID 0000.0001) %MON seaice_heff_min              =   0.0000000000000E+00
(PID.TID 0000.0001) %MON seaice_heff_mean             =   1.9572676691293E-01
(PID.TID 0000.0001) %MON seaice_heff_sd               =   9.4895612589739E-01
(PID.TID 0000.0001) %MON seaice_heff_del2             =   6.1361609988831E-03
(PID.TID 0000.0001) %MON seaice_hsnow_max             =   1.9907165042666E+00
(PID.TID 0000.0001) %MON seaice_hsnow_min             =   0.0000000000000E+00
(PID.TID 0000.0001) %MON seaice_hsnow_mean            =   2.1739785004101E-02
(PID.TID 0000.0001) %MON seaice_hsnow_sd              =   1.1622056463996E-01
(PID.TID 0000.0001) %MON seaice_hsnow_del2            =   1.4262795068439E-03
(PID.TID 0000.0001) // =======================================================
(PID.TID 0000.0001) // End MONITOR SEAICE statistics
(PID.TID 0000.0001) // =======================================================
 SEAICE_LSR: Residual Initial ipass,Uice,Vice=    1  2.70963370E-03  1.61145210E-03
 SEAICE_LSR (ipass=   1) iters,dU,Resid=     6  1.32035980E-05  6.35760915E-05
 SEAICE_LSR (ipass=   1) iters,dV,Resid=     6  1.35605344E-06  5.81288935E-06
 SEAICE_LSR: Residual Initial ipass,Uice,Vice=    2  1.73132936E-03  1.10765815E-03
 SEAICE_LSR (ipass=   2) iters,dU,Resid=     4  5.59540270E-05  8.64026718E-05
 SEAICE_LSR (ipass=   2) iters,dV,Resid=     4  1.37775066E-05  8.99437854E-06
 cg2d: Sum(rhs),rhsMax =  -7.14897353042921E+01  4.42583888572416E+01
(PID.TID 0000.0001)      cg2d_init_res =   2.66360734260530E-01
(PID.TID 0000.0001)      cg2d_iters(min,last) =      -1      10
(PID.TID 0000.0001)      cg2d_last_res =   9.50775752126694E-08
(PID.TID 0000.0001) // =======================================================
(PID.TID 0000.0001) // Begin MONITOR dynamic field statistics
(PID.TID 0000.0001) // =======================================================
(PID.TID 0000.0001) %MON time_tsnumber                =                    59
(PID.TID 0000.0001) %MON time_secondsf                =   5.3100000000000E+04
(PID.TID 0000.0001) %MON dynstat_eta_max              =   1.9734340841832E+00
(PID.TID 0000.0001) %MON dynstat_eta_min              =  -7.2876649454818E-01
(PID.TID 0000.0001) %MON dynstat_eta_mean             =   3.6765498804769E-02
(PID.TID 0000.0001) %MON dynstat_eta_sd               =   7.9296235897492E-02
(PID.TID 0000.0001) %MON dynstat_eta_del2             =   1.4348625122156E-03
(PID.TID 0000.0001) %MON dynstat_uvel_max             =   7.2213886432611E-01
(PID.TID 0000.0001) %MON dynstat_uvel_min             =  -5.7359818156809E-01
(PID.TID 0000.0001) %MON dynstat_uvel_mean            =  -6.4540711191028E-05
(PID.TID 0000.0001) %MON dynstat_uvel_sd              =   5.3016018322745E-03
(PID.TID 0000.0001) %MON dynstat_uvel_del2            =   8.6376493732580E-05
(PID.TID 0000.0001) %MON dynstat_vvel_max             =   7.3848569119950E-01
(PID.TID 0000.0001) %MON dynstat_vvel_min             =  -6.4277449736354E-01
(PID.TID 0000.0001) %MON dynstat_vvel_mean            =   9.2161249550581E-04
(PID.TID 0000.0001) %MON dynstat_vvel_sd              =   5.8604232501880E-03
(PID.TID 0000.0001) %MON dynstat_vvel_del2            =   9.0426171785002E-05
(PID.TID 0000.0001) %MON dynstat_wvel_max             =   1.3611293496345E-04
(PID.TID 0000.0001) %MON dynstat_wvel_min             =  -2.4533084047374E-04
(PID.TID 0000.0001) %MON dynstat_wvel_mean            =  -3.7317803803779E-07
(PID.TID 0000.0001) %MON dynstat_wvel_sd              =   7.2385870345608E-06
(PID.TID 0000.0001) %MON dynstat_wvel_del2            =   8.2538454239895E-08
(PID.TID 0000.0001) %MON dynstat_theta_max            =   2.1630602888214E+01
(PID.TID 0000.0001) %MON dynstat_theta_min            =   1.6154553412959E+01
(PID.TID 0000.0001) %MON dynstat_theta_mean           =   1.9997913130222E+01
(PID.TID 0000.0001) %MON dynstat_theta_sd             =   2.4452379797619E-02
(PID.TID 0000.0001) %MON dynstat_theta_del2           =   3.5254491246186E-04
(PID.TID 0000.0001) %MON dynstat_salt_max             =   3.5078428169865E+01
(PID.TID 0000.0001) %MON dynstat_salt_min             =   2.9389269131864E+01
(PID.TID 0000.0001) %MON dynstat_salt_mean            =   3.4999638128082E+01
(PID.TID 0000.0001) %MON dynstat_salt_sd              =   2.7493712041315E-02
(PID.TID 0000.0001) %MON dynstat_salt_del2            =   7.3030600991554E-04
(PID.TID 0000.0001) %MON dynstat_sst_max              =   2.1630602888214E+01
(PID.TID 0000.0001) %MON dynstat_sst_min              =   1.6154553412959E+01
(PID.TID 0000.0001) %MON dynstat_sst_mean             =   2.0052710251666E+01
(PID.TID 0000.0001) %MON dynstat_sst_sd               =   1.7767783585495E-01
(PID.TID 0000.0001) %MON dynstat_sst_del2             =   4.0954444064812E-03
(PID.TID 0000.0001) %MON dynstat_sss_max              =   3.5078428169865E+01
(PID.TID 0000.0001) %MON dynstat_sss_min              =   2.9389269131864E+01
(PID.TID 0000.0001) %MON dynstat_sss_mean             =   3.4981847376533E+01
(PID.TID 0000.0001) %MON dynstat_sss_sd               =   2.3467535081017E-01
(PID.TID 0000.0001) %MON dynstat_sss_del2             =   9.1715058301852E-03
(PID.TID 0000.0001) %MON forcing_qnet_max             =   3.5076623535156E+03
(PID.TID 0000.0001) %MON forcing_qnet_min             =  -4.1866342773438E+03
(PID.TID 0000.0001) %MON forcing_qnet_mean            =  -1.9122598879973E+01
(PID.TID 0000.0001) %MON forcing_qnet_sd              =   4.9912099747214E+02
(PID.TID 0000.0001) %MON forcing_qnet_del2            =   7.1707078366337E+00
(PID.TID 0000.0001) %MON forcing_qsw_max              =   0.0000000000000E+00
(PID.TID 0000.0001) %MON forcing_qsw_min              =  -1.0181880311684E+02
(PID.TID 0000.0001) %MON forcing_qsw_mean             =  -1.5147970409683E+01
(PID.TID 0000.0001) %MON forcing_qsw_sd               =   2.5062215462533E+01
(PID.TID 0000.0001) %MON forcing_qsw_del2             =   1.3421505850695E-01
(PID.TID 0000.0001) %MON forcing_empmr_max            =   6.0831219889224E-03
(PID.TID 0000.0001) %MON forcing_empmr_min            =  -8.7444558739662E-02
(PID.TID 0000.0001) %MON forcing_empmr_mean           =  -4.0559117808093E-04
(PID.TID 0000.0001) %MON forcing_empmr_sd             =   3.8764800189131E-03
(PID.TID 0000.0001) %MON forcing_empmr_del2           =   1.5248490503867E-04
(PID.TID 0000.0001) %MON forcing_fu_max               =   6.3889472532488E-01
(PID.TID 0000.0001) %MON forcing_fu_min               =  -6.1729459391759E-01
(PID.TID 0000.0001) %MON forcing_fu_mean              =  -1.2991901755836E-03
(PID.TID 0000.0001) %MON forcing_fu_sd                =   8.8563607264694E-02
(PID.TID 0000.0001) %MON forcing_fu_del2              =   7.4934779972416E-04
(PID.TID 0000.0001) %MON forcing_fv_max               =   4.1716122138839E-01
(PID.TID 0000.0001) %MON forcing_fv_min               =  -4.2248715305575E-01
(PID.TID 0000.0001) %MON forcing_fv_mean              =  -6.7835409951815E-03
(PID.TID 0000.0001) %MON forcing_fv_sd                =   7.6316734139328E-02
(PID.TID 0000.0001) %MON forcing_fv_del2              =   6.3850049468363E-04
(PID.TID 0000.0001) %MON trAdv_CFL_u_max              =   2.3534561552085E-03
(PID.TID 0000.0001) %MON trAdv_CFL_v_max              =   2.4580267370926E-03
(PID.TID 0000.0001) %MON trAdv_CFL_w_max              =   2.5269450851721E-03
(PID.TID 0000.0001) %MON advcfl_uvel_max              =   2.4081645891264E-03
(PID.TID 0000.0001) %MON advcfl_vvel_max              =   2.4099481879903E-03
(PID.TID 0000.0001) %MON advcfl_wvel_max              =   3.0415498692056E-03
(PID.TID 0000.0001) %MON advcfl_W_hf_max              =   2.5269450851721E-03
(PID.TID 0000.0001) %MON pe_b_mean                    =   1.0177251564706E-05
(PID.TID 0000.0001) %MON ke_max                       =   2.6098946887153E-01
(PID.TID 0000.0001) %MON ke_mean                      =   2.9243329517766E-05
(PID.TID 0000.0001) %MON ke_vol                       =   1.3398156955017E+18
(PID.TID 0000.0001) %MON vort_r_min                   =  -3.9330474210094E-06
(PID.TID 0000.0001) %MON vort_r_max                   =   3.0795369094414E-06
(PID.TID 0000.0001) %MON vort_a_mean                  =  -2.0549865324846E-05
(PID.TID 0000.0001) %MON vort_a_sd                    =   7.5259472330812E-05
(PID.TID 0000.0001) %MON vort_p_mean                  =  -2.4783278467744E-05
(PID.TID 0000.0001) %MON vort_p_sd                    =   1.2810516136521E-04
(PID.TID 0000.0001) %MON surfExpan_theta_mean         =   1.0362562711535E-07
(PID.TID 0000.0001) %MON surfExpan_salt_mean          =   8.4957211303216E-07
(PID.TID 0000.0001) // =======================================================
(PID.TID 0000.0001) // End MONITOR dynamic field statistics
(PID.TID 0000.0001) // =======================================================
(PID.TID 0000.0001) // =======================================================
(PID.TID 0000.0001) // Begin MONITOR SEAICE statistics
(PID.TID 0000.0001) // =======================================================
(PID.TID 0000.0001) %MON seaice_tsnumber              =                    59
(PID.TID 0000.0001) %MON seaice_time_sec              =   5.3100000000000E+04
(PID.TID 0000.0001) %MON seaice_uice_max              =   6.2188604621783E-01
(PID.TID 0000.0001) %MON seaice_uice_min              =  -4.3596850532336E-01
(PID.TID 0000.0001) %MON seaice_uice_mean             =  -4.9294670932473E-03
(PID.TID 0000.0001) %MON seaice_uice_sd               =   3.7369569180528E-02
(PID.TID 0000.0001) %MON seaice_uice_del2             =   8.9776518510559E-04
(PID.TID 0000.0001) %MON seaice_vice_max              =   7.5982865103594E-01
(PID.TID 0000.0001) %MON seaice_vice_min              =  -6.2839933639716E-01
(PID.TID 0000.0001) %MON seaice_vice_mean             =  -1.1549822024230E-02
(PID.TID 0000.0001) %MON seaice_vice_sd               =   4.0963654158846E-02
(PID.TID 0000.0001) %MON seaice_vice_del2             =   9.4586837186797E-04
(PID.TID 0000.0001) %MON seaice_area_max              =   9.8797519126153E-01
(PID.TID 0000.0001) %MON seaice_area_min              =   0.0000000000000E+00
(PID.TID 0000.0001) %MON seaice_area_mean             =   6.3257407267360E-02
(PID.TID 0000.0001) %MON seaice_area_sd               =   2.2119883697069E-01
(PID.TID 0000.0001) %MON seaice_area_del2             =   1.5379678795128E-03
(PID.TID 0000.0001) %MON seaice_heff_max              =   8.2837740881242E+00
(PID.TID 0000.0001) %MON seaice_heff_min              =   0.0000000000000E+00
(PID.TID 0000.0001) %MON seaice_heff_mean             =   1.9555491414998E-01
(PID.TID 0000.0001) %MON seaice_heff_sd               =   9.4846636081810E-01
(PID.TID 0000.0001) %MON seaice_heff_del2             =   6.1345266343882E-03
(PID.TID 0000.0001) %MON seaice_hsnow_max             =   1.9899976961797E+00
(PID.TID 0000.0001) %MON seaice_hsnow_min             =   0.0000000000000E+00
(PID.TID 0000.0001) %MON seaice_hsnow_mean            =   2.1720624710340E-02
(PID.TID 0000.0001) %MON seaice_hsnow_sd              =   1.1616005256165E-01
(PID.TID 0000.0001) %MON seaice_hsnow_del2            =   1.4256142267704E-03
(PID.TID 0000.0001) // =======================================================
(PID.TID 0000.0001) // End MONITOR SEAICE statistics
(PID.TID 0000.0001) // =======================================================
 SEAICE_LSR: Residual Initial ipass,Uice,Vice=    1  2.68482401E-03  1.47464787E-03
 SEAICE_LSR (ipass=   1) iters,dU,Resid=     4  9.04757510E-05  1.33674313E-04
 SEAICE_LSR (ipass=   1) iters,dV,Resid=     4  1.92121246E-05  9.49591817E-06
 SEAICE_LSR: Residual Initial ipass,Uice,Vice=    2  1.74026432E-03  1.06865101E-03
 SEAICE_LSR (ipass=   2) iters,dU,Resid=     4  4.44031828E-05  1.01109426E-04
 SEAICE_LSR (ipass=   2) iters,dV,Resid=     4  1.11561214E-05  8.93555854E-06
 cg2d: Sum(rhs),rhsMax =  -7.87097241784133E+01  4.05821895322669E+01
(PID.TID 0000.0001)      cg2d_init_res =   2.89721608566001E-01
(PID.TID 0000.0001)      cg2d_iters(min,last) =      -1      10
(PID.TID 0000.0001)      cg2d_last_res =   9.64033758861248E-08
(PID.TID 0000.0001) // =======================================================
(PID.TID 0000.0001) // Begin MONITOR dynamic field statistics
(PID.TID 0000.0001) // =======================================================
(PID.TID 0000.0001) %MON time_tsnumber                =                    60
(PID.TID 0000.0001) %MON time_secondsf                =   5.4000000000000E+04
(PID.TID 0000.0001) %MON dynstat_eta_max              =   1.8099232532858E+00
(PID.TID 0000.0001) %MON dynstat_eta_min              =  -7.3315211307664E-01
(PID.TID 0000.0001) %MON dynstat_eta_mean             =   3.7116330957751E-02
(PID.TID 0000.0001) %MON dynstat_eta_sd               =   7.6805007989840E-02
(PID.TID 0000.0001) %MON dynstat_eta_del2             =   1.3307544417998E-03
(PID.TID 0000.0001) %MON dynstat_uvel_max             =   7.3964120223712E-01
(PID.TID 0000.0001) %MON dynstat_uvel_min             =  -5.9297525664390E-01
(PID.TID 0000.0001) %MON dynstat_uvel_mean            =  -5.1683649767171E-05
(PID.TID 0000.0001) %MON dynstat_uvel_sd              =   5.3325226607301E-03
(PID.TID 0000.0001) %MON dynstat_uvel_del2            =   8.6325384384253E-05
(PID.TID 0000.0001) %MON dynstat_vvel_max             =   7.2365034961035E-01
(PID.TID 0000.0001) %MON dynstat_vvel_min             =  -6.4612074516351E-01
(PID.TID 0000.0001) %MON dynstat_vvel_mean            =   9.3634810833667E-04
(PID.TID 0000.0001) %MON dynstat_vvel_sd              =   5.8363990257504E-03
(PID.TID 0000.0001) %MON dynstat_vvel_del2            =   9.1517688977702E-05
(PID.TID 0000.0001) %MON dynstat_wvel_max             =   1.3593935929234E-04
(PID.TID 0000.0001) %MON dynstat_wvel_min             =  -2.4370276775691E-04
(PID.TID 0000.0001) %MON dynstat_wvel_mean            =  -3.6136580475331E-07
(PID.TID 0000.0001) %MON dynstat_wvel_sd              =   7.1988202451576E-06
(PID.TID 0000.0001) %MON dynstat_wvel_del2            =   8.1974656924919E-08
(PID.TID 0000.0001) %MON dynstat_theta_max            =   2.1649693515395E+01
(PID.TID 0000.0001) %MON dynstat_theta_min            =   1.6147767102789E+01
(PID.TID 0000.0001) %MON dynstat_theta_mean           =   1.9997914317097E+01
(PID.TID 0000.0001) %MON dynstat_theta_sd             =   2.4576913533946E-02
(PID.TID 0000.0001) %MON dynstat_theta_del2           =   3.5387273410122E-04
(PID.TID 0000.0001) %MON dynstat_salt_max             =   3.5078421774955E+01
(PID.TID 0000.0001) %MON dynstat_salt_min             =   2.9344564117560E+01
(PID.TID 0000.0001) %MON dynstat_salt_mean            =   3.4999634862831E+01
(PID.TID 0000.0001) %MON dynstat_salt_sd              =   2.7718086029029E-02
(PID.TID 0000.0001) %MON dynstat_salt_del2            =   7.3602127867846E-04
(PID.TID 0000.0001) %MON dynstat_sst_max              =   2.1649693515395E+01
(PID.TID 0000.0001) %MON dynstat_sst_min              =   1.6147767102789E+01
(PID.TID 0000.0001) %MON dynstat_sst_mean             =   2.0053470508403E+01
(PID.TID 0000.0001) %MON dynstat_sst_sd               =   1.7866990113891E-01
(PID.TID 0000.0001) %MON dynstat_sst_del2             =   4.1124927053764E-03
(PID.TID 0000.0001) %MON dynstat_sss_max              =   3.5078421774955E+01
(PID.TID 0000.0001) %MON dynstat_sss_min              =   2.9344564117560E+01
(PID.TID 0000.0001) %MON dynstat_sss_mean             =   3.4981660215398E+01
(PID.TID 0000.0001) %MON dynstat_sss_sd               =   2.3658830060340E-01
(PID.TID 0000.0001) %MON dynstat_sss_del2             =   9.2432814853859E-03
(PID.TID 0000.0001) %MON forcing_qnet_max             =   3.4670029296875E+03
(PID.TID 0000.0001) %MON forcing_qnet_min             =  -4.1360683593750E+03
(PID.TID 0000.0001) %MON forcing_qnet_mean            =  -1.9240392945250E+01
(PID.TID 0000.0001) %MON forcing_qnet_sd              =   4.9717778976458E+02
(PID.TID 0000.0001) %MON forcing_qnet_del2            =   7.1062705092910E+00
(PID.TID 0000.0001) %MON forcing_qsw_max              =   0.0000000000000E+00
(PID.TID 0000.0001) %MON forcing_qsw_min              =  -1.0126255770904E+02
(PID.TID 0000.0001) %MON forcing_qsw_mean             =  -1.5194996010501E+01
(PID.TID 0000.0001) %MON forcing_qsw_sd               =   2.5338285604790E+01
(PID.TID 0000.0001) %MON forcing_qsw_del2             =   1.3367828136426E-01
(PID.TID 0000.0001) %MON forcing_empmr_max            =   6.0204383917153E-03
(PID.TID 0000.0001) %MON forcing_empmr_min            =  -8.6543381214142E-02
(PID.TID 0000.0001) %MON forcing_empmr_mean           =  -4.0345697592924E-04
(PID.TID 0000.0001) %MON forcing_empmr_sd             =   3.8372385511713E-03
(PID.TID 0000.0001) %MON forcing_empmr_del2           =   1.5091326487263E-04
(PID.TID 0000.0001) %MON forcing_fu_max               =   6.3371104828723E-01
(PID.TID 0000.0001) %MON forcing_fu_min               =  -6.2160480683623E-01
(PID.TID 0000.0001) %MON forcing_fu_mean              =  -1.2343485282078E-03
(PID.TID 0000.0001) %MON forcing_fu_sd                =   8.8456132715358E-02
(PID.TID 0000.0001) %MON forcing_fu_del2              =   7.4781798800515E-04
(PID.TID 0000.0001) %MON forcing_fv_max               =   4.1487506983717E-01
(PID.TID 0000.0001) %MON forcing_fv_min               =  -4.2159101947073E-01
(PID.TID 0000.0001) %MON forcing_fv_mean              =  -6.8548207476149E-03
(PID.TID 0000.0001) %MON forcing_fv_sd                =   7.5974188914996E-02
(PID.TID 0000.0001) %MON forcing_fv_del2              =   6.3613731807395E-04
(PID.TID 0000.0001) %MON trAdv_CFL_u_max              =   2.4156545532719E-03
(PID.TID 0000.0001) %MON trAdv_CFL_v_max              =   2.4136048912298E-03
(PID.TID 0000.0001) %MON trAdv_CFL_w_max              =   2.5085644934123E-03
(PID.TID 0000.0001) %MON advcfl_uvel_max              =   2.4665308015910E-03
(PID.TID 0000.0001) %MON advcfl_vvel_max              =   2.3615350568937E-03
(PID.TID 0000.0001) %MON advcfl_wvel_max              =   3.0102045639702E-03
(PID.TID 0000.0001) %MON advcfl_W_hf_max              =   2.5085644934123E-03
(PID.TID 0000.0001) %MON pe_b_mean                    =   9.6937207569776E-06
(PID.TID 0000.0001) %MON ke_max                       =   2.6258612360947E-01
(PID.TID 0000.0001) %MON ke_mean                      =   2.9276041001786E-05
(PID.TID 0000.0001) %MON ke_vol                       =   1.3398158238402E+18
(PID.TID 0000.0001) %MON vort_r_min                   =  -4.0066916024891E-06
(PID.TID 0000.0001) %MON vort_r_max                   =   3.1593254196750E-06
(PID.TID 0000.0001) %MON vort_a_mean                  =  -2.0549865324846E-05
(PID.TID 0000.0001) %MON vort_a_sd                    =   7.5259476796078E-05
(PID.TID 0000.0001) %MON vort_p_mean                  =  -2.4783275668600E-05
(PID.TID 0000.0001) %MON vort_p_sd                    =   1.2810517504949E-04
(PID.TID 0000.0001) %MON surfExpan_theta_mean         =   9.2779824714918E-08
(PID.TID 0000.0001) %MON surfExpan_salt_mean          =   8.5325092171991E-07
(PID.TID 0000.0001) // =======================================================
(PID.TID 0000.0001) // End MONITOR dynamic field statistics
(PID.TID 0000.0001) // =======================================================
(PID.TID 0000.0001) // =======================================================
(PID.TID 0000.0001) // Begin MONITOR SEAICE statistics
(PID.TID 0000.0001) // =======================================================
(PID.TID 0000.0001) %MON seaice_tsnumber              =                    60
(PID.TID 0000.0001) %MON seaice_time_sec              =   5.4000000000000E+04
(PID.TID 0000.0001) %MON seaice_uice_max              =   6.5526926216665E-01
(PID.TID 0000.0001) %MON seaice_uice_min              =  -4.6200521835049E-01
(PID.TID 0000.0001) %MON seaice_uice_mean             =  -4.8261132650099E-03
(PID.TID 0000.0001) %MON seaice_uice_sd               =   3.7694899936889E-02
(PID.TID 0000.0001) %MON seaice_uice_del2             =   9.0403702594378E-04
(PID.TID 0000.0001) %MON seaice_vice_max              =   7.5658008284225E-01
(PID.TID 0000.0001) %MON seaice_vice_min              =  -6.3555188214797E-01
(PID.TID 0000.0001) %MON seaice_vice_mean             =  -1.1687524257219E-02
(PID.TID 0000.0001) %MON seaice_vice_sd               =   4.0826574460146E-02
(PID.TID 0000.0001) %MON seaice_vice_del2             =   9.6001828282254E-04
(PID.TID 0000.0001) %MON seaice_area_max              =   9.8764040054200E-01
(PID.TID 0000.0001) %MON seaice_area_min              =   0.0000000000000E+00
(PID.TID 0000.0001) %MON seaice_area_mean             =   6.3165905485519E-02
(PID.TID 0000.0001) %MON seaice_area_sd               =   2.2095221617331E-01
(PID.TID 0000.0001) %MON seaice_area_del2             =   1.5338645929771E-03
(PID.TID 0000.0001) %MON seaice_heff_max              =   8.2811640153015E+00
(PID.TID 0000.0001) %MON seaice_heff_min              =   0.0000000000000E+00
(PID.TID 0000.0001) %MON seaice_heff_mean             =   1.9538319589835E-01
(PID.TID 0000.0001) %MON seaice_heff_sd               =   9.4797662035395E-01
(PID.TID 0000.0001) %MON seaice_heff_del2             =   6.1328988109516E-03
(PID.TID 0000.0001) %MON seaice_hsnow_max             =   1.9892706289038E+00
(PID.TID 0000.0001) %MON seaice_hsnow_min             =   0.0000000000000E+00
(PID.TID 0000.0001) %MON seaice_hsnow_mean            =   2.1701485548347E-02
(PID.TID 0000.0001) %MON seaice_hsnow_sd              =   1.1609950021836E-01
(PID.TID 0000.0001) %MON seaice_hsnow_del2            =   1.4249483655806E-03
(PID.TID 0000.0001) // =======================================================
(PID.TID 0000.0001) // End MONITOR SEAICE statistics
(PID.TID 0000.0001) // =======================================================
 Compute Stats, Diag. #    211  SIarea    vol(   0 ): 1.456E+15  Parms: SM      M1      
 Compute Stats, Diag. #    214  SIheff    vol(   0 ): 1.456E+15  Parms: SM      M1      
 Compute Stats, Diag. #    216  SIhsnow   vol(   0 ): 1.456E+15  Parms: SM      M1      
 Compute Stats, Diag. #     83  sIceLoad  vol(   0 ): 1.456E+15  Parms: SM      U1      
 Compute Stats, Diag. #    220  SIuice    vol(   0 ): 1.383E+15  Parms: UU      M1      
 Compute Stats, Diag. #    221  SIvice    vol(   0 ): 1.391E+15  Parms: VV      M1      
 Compute Stats, Diag. #    222  SItaux    vol(   0 ): 1.383E+15  Parms: UU      U1      
 Compute Stats, Diag. #    223  SItauy    vol(   0 ): 1.391E+15  Parms: VV      U1      
 Compute Stats, Diag. #    282  SIareaN   vol(   0 ): 7.278E+15  Parms: SM      MX      
 Compute Stats, Diag. #    281  SIheffN   vol(   0 ): 7.278E+15  Parms: SM      MX      
 Compute Stats, Diag. #    283  SIhsnowN  vol(   0 ): 7.278E+15  Parms: SM      MX      
 Compute Stats, Diag. #    287  SIqSnow   vol(   0 ): 7.278E+15  Parms: SM      MX      
 Compute Stats, Diag. #    286  SIqIce    vol(   0 ): 2.911E+16  Parms: SM      MX      
 Compute Stats, Diag. #    288  SImeltPd  vol(   0 ): 7.278E+15  Parms: SM      MX      
 Compute Stats, Diag. #    285  SItIces   vol(   0 ): 7.278E+15  Parms: SM      MX      
 Compute Stats, Diag. #    289  SIiceAge  vol(   0 ): 7.278E+15  Parms: SM      MX      
 Compute Stats, Diag. #    290  SI_dArea  vol(   0 ): 7.278E+15  Parms: SM      MX      
 Compute Stats, Diag. #    291  SI_dHeff  vol(   0 ): 7.278E+15  Parms: SM      MX      
 Compute Stats, Diag. #    292  SI_dHsnw  vol(   0 ): 7.278E+15  Parms: SM      MX      
 Compute Stats, Diag. #    295  SI_dQSnw  vol(   0 ): 7.278E+15  Parms: SM      MX      
 Compute Stats, Diag. #    294  SI_dQIce  vol(   0 ): 2.911E+16  Parms: SM      MX      
 SEAICE_LSR: Residual Initial ipass,Uice,Vice=    1  2.63960819E-03  1.56292311E-03
 SEAICE_LSR (ipass=   1) iters,dU,Resid=     4  7.17069519E-05  1.41040719E-04
 SEAICE_LSR (ipass=   1) iters,dV,Resid=     4  1.55857944E-05  1.14606706E-05
 SEAICE_LSR: Residual Initial ipass,Uice,Vice=    2  1.76062129E-03  1.30276550E-03
 SEAICE_LSR (ipass=   2) iters,dU,Resid=     4  4.97064889E-05  1.06258670E-04
 SEAICE_LSR (ipass=   2) iters,dV,Resid=     4  9.06504645E-06  1.05681002E-05
 cg2d: Sum(rhs),rhsMax =  -8.76718481415043E+01  3.67765408313042E+01
(PID.TID 0000.0001)      cg2d_init_res =   3.16874946561744E-01
(PID.TID 0000.0001)      cg2d_iters(min,last) =      -1      11
(PID.TID 0000.0001)      cg2d_last_res =   2.52344125969521E-08
(PID.TID 0000.0001) // =======================================================
(PID.TID 0000.0001) // Begin MONITOR dynamic field statistics
(PID.TID 0000.0001) // =======================================================
(PID.TID 0000.0001) %MON time_tsnumber                =                    61
(PID.TID 0000.0001) %MON time_secondsf                =   5.4900000000000E+04
(PID.TID 0000.0001) %MON dynstat_eta_max              =   1.6406484934562E+00
(PID.TID 0000.0001) %MON dynstat_eta_min              =  -7.2570112940183E-01
(PID.TID 0000.0001) %MON dynstat_eta_mean             =   3.7465558616767E-02
(PID.TID 0000.0001) %MON dynstat_eta_sd               =   7.4811066785111E-02
(PID.TID 0000.0001) %MON dynstat_eta_del2             =   1.2465226660700E-03
(PID.TID 0000.0001) %MON dynstat_uvel_max             =   7.4481009105588E-01
(PID.TID 0000.0001) %MON dynstat_uvel_min             =  -6.1079013132703E-01
(PID.TID 0000.0001) %MON dynstat_uvel_mean            =  -3.9460108033449E-05
(PID.TID 0000.0001) %MON dynstat_uvel_sd              =   5.3634468938517E-03
(PID.TID 0000.0001) %MON dynstat_uvel_del2            =   8.6049586464441E-05
(PID.TID 0000.0001) %MON dynstat_vvel_max             =   6.9788297548673E-01
(PID.TID 0000.0001) %MON dynstat_vvel_min             =  -6.4588843599761E-01
(PID.TID 0000.0001) %MON dynstat_vvel_mean            =   9.4697308008497E-04
(PID.TID 0000.0001) %MON dynstat_vvel_sd              =   5.8005803049823E-03
(PID.TID 0000.0001) %MON dynstat_vvel_del2            =   9.2029673109631E-05
(PID.TID 0000.0001) %MON dynstat_wvel_max             =   1.3554375852370E-04
(PID.TID 0000.0001) %MON dynstat_wvel_min             =  -2.4147665359908E-04
(PID.TID 0000.0001) %MON dynstat_wvel_mean            =  -3.4840007824387E-07
(PID.TID 0000.0001) %MON dynstat_wvel_sd              =   7.1546133668909E-06
(PID.TID 0000.0001) %MON dynstat_wvel_del2            =   8.1357597932295E-08
(PID.TID 0000.0001) %MON dynstat_theta_max            =   2.1668562678840E+01
(PID.TID 0000.0001) %MON dynstat_theta_min            =   1.6140800413571E+01
(PID.TID 0000.0001) %MON dynstat_theta_mean           =   1.9997915583617E+01
(PID.TID 0000.0001) %MON dynstat_theta_sd             =   2.4701208809601E-02
(PID.TID 0000.0001) %MON dynstat_theta_del2           =   3.5517928569138E-04
(PID.TID 0000.0001) %MON dynstat_salt_max             =   3.5078414855225E+01
(PID.TID 0000.0001) %MON dynstat_salt_min             =   2.9300816648958E+01
(PID.TID 0000.0001) %MON dynstat_salt_mean            =   3.4999631623089E+01
(PID.TID 0000.0001) %MON dynstat_salt_sd              =   2.7937831382020E-02
(PID.TID 0000.0001) %MON dynstat_salt_del2            =   7.4160751075330E-04
(PID.TID 0000.0001) %MON dynstat_sst_max              =   2.1668562678840E+01
(PID.TID 0000.0001) %MON dynstat_sst_min              =   1.6140800413571E+01
(PID.TID 0000.0001) %MON dynstat_sst_mean             =   2.0054237862378E+01
(PID.TID 0000.0001) %MON dynstat_sst_sd               =   1.7965554600319E-01
(PID.TID 0000.0001) %MON dynstat_sst_del2             =   4.1293727902503E-03
(PID.TID 0000.0001) %MON dynstat_sss_max              =   3.5078414855225E+01
(PID.TID 0000.0001) %MON dynstat_sss_min              =   2.9300816648958E+01
(PID.TID 0000.0001) %MON dynstat_sss_mean             =   3.4981476882004E+01
(PID.TID 0000.0001) %MON dynstat_sss_sd               =   2.3846270093475E-01
(PID.TID 0000.0001) %MON dynstat_sss_del2             =   9.3134408734903E-03
(PID.TID 0000.0001) %MON forcing_qnet_max             =   3.4268352050781E+03
(PID.TID 0000.0001) %MON forcing_qnet_min             =  -4.0838459472656E+03
(PID.TID 0000.0001) %MON forcing_qnet_mean            =  -2.0558473433403E+01
(PID.TID 0000.0001) %MON forcing_qnet_sd              =   4.9465521376373E+02
(PID.TID 0000.0001) %MON forcing_qnet_del2            =   6.9229957001819E+00
(PID.TID 0000.0001) %MON forcing_qsw_max              =   0.0000000000000E+00
(PID.TID 0000.0001) %MON forcing_qsw_min              =  -1.0097409190074E+02
(PID.TID 0000.0001) %MON forcing_qsw_mean             =  -1.5441522983756E+01
(PID.TID 0000.0001) %MON forcing_qsw_sd               =   2.6237331249621E+01
(PID.TID 0000.0001) %MON forcing_qsw_del2             =   1.3120072352453E-01
(PID.TID 0000.0001) %MON forcing_empmr_max            =   5.9584444388747E-03
(PID.TID 0000.0001) %MON forcing_empmr_min            =  -8.5651434957981E-02
(PID.TID 0000.0001) %MON forcing_empmr_mean           =  -4.0161180786847E-04
(PID.TID 0000.0001) %MON forcing_empmr_sd             =   3.7985742804945E-03
(PID.TID 0000.0001) %MON forcing_empmr_del2           =   1.4936039823009E-04
(PID.TID 0000.0001) %MON forcing_fu_max               =   6.2790631098750E-01
(PID.TID 0000.0001) %MON forcing_fu_min               =  -6.2043802115537E-01
(PID.TID 0000.0001) %MON forcing_fu_mean              =  -1.1747691074092E-03
(PID.TID 0000.0001) %MON forcing_fu_sd                =   8.8267015500553E-02
(PID.TID 0000.0001) %MON forcing_fu_del2              =   7.4483155124646E-04
(PID.TID 0000.0001) %MON forcing_fv_max               =   4.1196790649701E-01
(PID.TID 0000.0001) %MON forcing_fv_min               =  -4.1972240993720E-01
(PID.TID 0000.0001) %MON forcing_fv_mean              =  -6.9090939344468E-03
(PID.TID 0000.0001) %MON forcing_fv_sd                =   7.5598987591304E-02
(PID.TID 0000.0001) %MON forcing_fv_del2              =   6.3287294290122E-04
(PID.TID 0000.0001) %MON trAdv_CFL_u_max              =   2.4377646914111E-03
(PID.TID 0000.0001) %MON trAdv_CFL_v_max              =   2.3324452907372E-03
(PID.TID 0000.0001) %MON trAdv_CFL_w_max              =   2.4842244274292E-03
(PID.TID 0000.0001) %MON advcfl_uvel_max              =   2.4837678395534E-03
(PID.TID 0000.0001) %MON advcfl_vvel_max              =   2.2774467159569E-03
(PID.TID 0000.0001) %MON advcfl_wvel_max              =   2.9791803463646E-03
(PID.TID 0000.0001) %MON advcfl_W_hf_max              =   2.4842244274292E-03
(PID.TID 0000.0001) %MON pe_b_mean                    =   9.3256842067425E-06
(PID.TID 0000.0001) %MON ke_max                       =   2.5601193635411E-01
(PID.TID 0000.0001) %MON ke_mean                      =   2.9243394321422E-05
(PID.TID 0000.0001) %MON ke_vol                       =   1.3398159515033E+18
(PID.TID 0000.0001) %MON vort_r_min                   =  -4.0637304657658E-06
(PID.TID 0000.0001) %MON vort_r_max                   =   3.2007904769498E-06
(PID.TID 0000.0001) %MON vort_a_mean                  =  -2.0549865324846E-05
(PID.TID 0000.0001) %MON vort_a_sd                    =   7.5259480360426E-05
(PID.TID 0000.0001) %MON vort_p_mean                  =  -2.4783272928854E-05
(PID.TID 0000.0001) %MON vort_p_sd                    =   1.2810519107491E-04
(PID.TID 0000.0001) %MON surfExpan_theta_mean         =   7.7730549236899E-08
(PID.TID 0000.0001) %MON surfExpan_salt_mean          =   8.5638960071446E-07
(PID.TID 0000.0001) // =======================================================
(PID.TID 0000.0001) // End MONITOR dynamic field statistics
(PID.TID 0000.0001) // =======================================================
(PID.TID 0000.0001) // =======================================================
(PID.TID 0000.0001) // Begin MONITOR SEAICE statistics
(PID.TID 0000.0001) // =======================================================
(PID.TID 0000.0001) %MON seaice_tsnumber              =                    61
(PID.TID 0000.0001) %MON seaice_time_sec              =   5.4900000000000E+04
(PID.TID 0000.0001) %MON seaice_uice_max              =   6.7584531863411E-01
(PID.TID 0000.0001) %MON seaice_uice_min              =  -4.8649483661074E-01
(PID.TID 0000.0001) %MON seaice_uice_mean             =  -4.7298253402747E-03
(PID.TID 0000.0001) %MON seaice_uice_sd               =   3.8074084936593E-02
(PID.TID 0000.0001) %MON seaice_uice_del2             =   9.0922264420730E-04
(PID.TID 0000.0001) %MON seaice_vice_max              =   7.4147264786952E-01
(PID.TID 0000.0001) %MON seaice_vice_min              =  -6.3920205667632E-01
(PID.TID 0000.0001) %MON seaice_vice_mean             =  -1.1806095996813E-02
(PID.TID 0000.0001) %MON seaice_vice_sd               =   4.0608222156590E-02
(PID.TID 0000.0001) %MON seaice_vice_del2             =   9.6824353415629E-04
(PID.TID 0000.0001) %MON seaice_area_max              =   9.8730283260845E-01
(PID.TID 0000.0001) %MON seaice_area_min              =   0.0000000000000E+00
(PID.TID 0000.0001) %MON seaice_area_mean             =   6.3074555771186E-02
(PID.TID 0000.0001) %MON seaice_area_sd               =   2.2070602286996E-01
(PID.TID 0000.0001) %MON seaice_area_del2             =   1.5298018563966E-03
(PID.TID 0000.0001) %MON seaice_heff_max              =   8.2785537870790E+00
(PID.TID 0000.0001) %MON seaice_heff_min              =   0.0000000000000E+00
(PID.TID 0000.0001) %MON seaice_heff_mean             =   1.9521160186751E-01
(PID.TID 0000.0001) %MON seaice_heff_sd               =   9.4748689444221E-01
(PID.TID 0000.0001) %MON seaice_heff_del2             =   6.1312777833813E-03
(PID.TID 0000.0001) %MON seaice_hsnow_max             =   1.9885455668530E+00
(PID.TID 0000.0001) %MON seaice_hsnow_min             =   0.0000000000000E+00
(PID.TID 0000.0001) %MON seaice_hsnow_mean            =   2.1682359468729E-02
(PID.TID 0000.0001) %MON seaice_hsnow_sd              =   1.1603894528672E-01
(PID.TID 0000.0001) %MON seaice_hsnow_del2            =   1.4242911014744E-03
(PID.TID 0000.0001) // =======================================================
(PID.TID 0000.0001) // End MONITOR SEAICE statistics
(PID.TID 0000.0001) // =======================================================
 Computing Diagnostic #    211  SIarea       Counter:       1   Parms: SM      M1      
 Computing Diagnostic #    214  SIheff       Counter:       1   Parms: SM      M1      
 Computing Diagnostic #    216  SIhsnow      Counter:       1   Parms: SM      M1      
 Computing Diagnostic #     83  sIceLoad     Counter:       1   Parms: SM      U1      
 Computing Diagnostic #    220  SIuice       Counter:       1   Parms: UU      M1      
           Vector  Mate for  SIuice       Diagnostic #    221  SIvice   exists 
 Computing Diagnostic #    221  SIvice       Counter:       1   Parms: VV      M1      
           Vector  Mate for  SIvice       Diagnostic #    220  SIuice   exists 
 Computing Diagnostic #    222  SItaux       Counter:       1   Parms: UU      U1      
           Vector  Mate for  SItaux       Diagnostic #    223  SItauy   exists 
 Computing Diagnostic #    223  SItauy       Counter:       1   Parms: VV      U1      
           Vector  Mate for  SItauy       Diagnostic #    222  SItaux   exists 
 Computing Diagnostic #    284  CPLoWGHT     Counter:       1   Parms: SM      M1      
 Computing Diagnostic #    282  SIareaN      Counter:       1   Parms: SM      MX      
 Computing Diagnostic #    281  SIheffN      Counter:       1   Parms: SM      MX      
 Computing Diagnostic #    283  SIhsnowN     Counter:       1   Parms: SM      MX      
 Computing Diagnostic #    287  SIqSnow      Counter:       1   Parms: SM      MX      
 Computing Diagnostic #    288  SImeltPd     Counter:       1   Parms: SM      MX      
 Computing Diagnostic #    285  SItIces      Counter:       1   Parms: SM      MX      
 Computing Diagnostic #    289  SIiceAge     Counter:       1   Parms: SM      MX      
 Computing Diagnostic #    290  SI_dArea     Counter:       1   Parms: SM      MX      
 Computing Diagnostic #    291  SI_dHeff     Counter:       1   Parms: SM      MX      
 Computing Diagnostic #    292  SI_dHsnw     Counter:       1   Parms: SM      MX      
 Computing Diagnostic #    295  SI_dQSnw     Counter:       1   Parms: SM      MX      
 Computing Diagnostic #    286  SIqIce       Counter:       1   Parms: SM      MX      
 Computing Diagnostic #    294  SI_dQIce     Counter:       1   Parms: SM      MX      
 SEAICE_LSR: Residual Initial ipass,Uice,Vice=    1  2.72414698E-03  1.76455598E-03
 SEAICE_LSR (ipass=   1) iters,dU,Resid=     6  1.43504978E-05  7.40595378E-05
 SEAICE_LSR (ipass=   1) iters,dV,Resid=     6  2.51760666E-06  4.68846014E-06
 SEAICE_LSR: Residual Initial ipass,Uice,Vice=    2  1.75913209E-03  1.32887264E-03
 SEAICE_LSR (ipass=   2) iters,dU,Resid=     4  8.13302805E-05  9.94336622E-05
 SEAICE_LSR (ipass=   2) iters,dV,Resid=     4  1.02693517E-05  1.29924614E-05
 cg2d: Sum(rhs),rhsMax =  -9.89792414622225E+01  3.28775769721185E+01
(PID.TID 0000.0001)      cg2d_init_res =   3.49157394878402E-01
(PID.TID 0000.0001)      cg2d_iters(min,last) =      -1      11
(PID.TID 0000.0001)      cg2d_last_res =   2.77071494098263E-08
(PID.TID 0000.0001) // =======================================================
(PID.TID 0000.0001) // Begin MONITOR dynamic field statistics
(PID.TID 0000.0001) // =======================================================
(PID.TID 0000.0001) %MON time_tsnumber                =                    62
(PID.TID 0000.0001) %MON time_secondsf                =   5.5800000000000E+04
(PID.TID 0000.0001) %MON dynstat_eta_max              =   1.4672148068443E+00
(PID.TID 0000.0001) %MON dynstat_eta_min              =  -7.0660131808615E-01
(PID.TID 0000.0001) %MON dynstat_eta_mean             =   3.7813345047278E-02
(PID.TID 0000.0001) %MON dynstat_eta_sd               =   7.3361739447246E-02
(PID.TID 0000.0001) %MON dynstat_eta_del2             =   1.1875611117905E-03
(PID.TID 0000.0001) %MON dynstat_uvel_max             =   7.3806420657302E-01
(PID.TID 0000.0001) %MON dynstat_uvel_min             =  -6.2672979603457E-01
(PID.TID 0000.0001) %MON dynstat_uvel_mean            =  -2.8141814622764E-05
(PID.TID 0000.0001) %MON dynstat_uvel_sd              =   5.3930789738600E-03
(PID.TID 0000.0001) %MON dynstat_uvel_del2            =   8.5560676384768E-05
(PID.TID 0000.0001) %MON dynstat_vvel_max             =   6.6212625820662E-01
(PID.TID 0000.0001) %MON dynstat_vvel_min             =  -6.4204272987402E-01
(PID.TID 0000.0001) %MON dynstat_vvel_mean            =   9.5348119778875E-04
(PID.TID 0000.0001) %MON dynstat_vvel_sd              =   5.7541143746366E-03
(PID.TID 0000.0001) %MON dynstat_vvel_del2            =   9.1942204587973E-05
(PID.TID 0000.0001) %MON dynstat_wvel_max             =   1.3489502674322E-04
(PID.TID 0000.0001) %MON dynstat_wvel_min             =  -2.3870223486913E-04
(PID.TID 0000.0001) %MON dynstat_wvel_mean            =  -3.3479857873879E-07
(PID.TID 0000.0001) %MON dynstat_wvel_sd              =   7.1093474861530E-06
(PID.TID 0000.0001) %MON dynstat_wvel_del2            =   8.0722270436677E-08
(PID.TID 0000.0001) %MON dynstat_theta_max            =   2.1687223038562E+01
(PID.TID 0000.0001) %MON dynstat_theta_min            =   1.6133737435585E+01
(PID.TID 0000.0001) %MON dynstat_theta_mean           =   1.9997916867601E+01
(PID.TID 0000.0001) %MON dynstat_theta_sd             =   2.4826485360580E-02
(PID.TID 0000.0001) %MON dynstat_theta_del2           =   3.5649627979751E-04
(PID.TID 0000.0001) %MON dynstat_salt_max             =   3.5078407009839E+01
(PID.TID 0000.0001) %MON dynstat_salt_min             =   2.9258003624557E+01
(PID.TID 0000.0001) %MON dynstat_salt_mean            =   3.4999628411227E+01
(PID.TID 0000.0001) %MON dynstat_salt_sd              =   2.8153195183991E-02
(PID.TID 0000.0001) %MON dynstat_salt_del2            =   7.4706995967451E-04
(PID.TID 0000.0001) %MON dynstat_sst_max              =   2.1687223038562E+01
(PID.TID 0000.0001) %MON dynstat_sst_min              =   1.6133737435585E+01
(PID.TID 0000.0001) %MON dynstat_sst_mean             =   2.0055024802407E+01
(PID.TID 0000.0001) %MON dynstat_sst_sd               =   1.8064431904595E-01
(PID.TID 0000.0001) %MON dynstat_sst_del2             =   4.1465690926234E-03
(PID.TID 0000.0001) %MON dynstat_sss_max              =   3.5078407009839E+01
(PID.TID 0000.0001) %MON dynstat_sss_min              =   2.9258003624557E+01
(PID.TID 0000.0001) %MON dynstat_sss_mean             =   3.4981303349591E+01
(PID.TID 0000.0001) %MON dynstat_sss_sd               =   2.4030126309097E-01
(PID.TID 0000.0001) %MON dynstat_sss_del2             =   9.3820533737303E-03
(PID.TID 0000.0001) %MON forcing_qnet_max             =   3.3850595703125E+03
(PID.TID 0000.0001) %MON forcing_qnet_min             =  -4.0345288085938E+03
(PID.TID 0000.0001) %MON forcing_qnet_mean            =  -2.0828854654986E+01
(PID.TID 0000.0001) %MON forcing_qnet_sd              =   4.9252591625969E+02
(PID.TID 0000.0001) %MON forcing_qnet_del2            =   6.8606240230630E+00
(PID.TID 0000.0001) %MON forcing_qsw_max              =   0.0000000000000E+00
(PID.TID 0000.0001) %MON forcing_qsw_min              =  -1.0241278243404E+02
(PID.TID 0000.0001) %MON forcing_qsw_mean             =  -1.5569637943016E+01
(PID.TID 0000.0001) %MON forcing_qsw_sd               =   2.6605610310906E+01
(PID.TID 0000.0001) %MON forcing_qsw_del2             =   1.3103500265180E-01
(PID.TID 0000.0001) %MON forcing_empmr_max            =   5.8971391990781E-03
(PID.TID 0000.0001) %MON forcing_empmr_min            =  -8.4769554436207E-02
(PID.TID 0000.0001) %MON forcing_empmr_mean           =  -3.9995439508721E-04
(PID.TID 0000.0001) %MON forcing_empmr_sd             =   3.7600423975906E-03
(PID.TID 0000.0001) %MON forcing_empmr_del2           =   1.4782090686817E-04
(PID.TID 0000.0001) %MON forcing_fu_max               =   6.1960895280568E-01
(PID.TID 0000.0001) %MON forcing_fu_min               =  -6.1933991676900E-01
(PID.TID 0000.0001) %MON forcing_fu_mean              =  -1.1327143499702E-03
(PID.TID 0000.0001) %MON forcing_fu_sd                =   8.8002311508847E-02
(PID.TID 0000.0001) %MON forcing_fu_del2              =   7.4162799181430E-04
(PID.TID 0000.0001) %MON forcing_fv_max               =   4.0890346500382E-01
(PID.TID 0000.0001) %MON forcing_fv_min               =  -4.1845957048266E-01
(PID.TID 0000.0001) %MON forcing_fv_mean              =  -6.9442338774712E-03
(PID.TID 0000.0001) %MON forcing_fv_sd                =   7.5178396083464E-02
(PID.TID 0000.0001) %MON forcing_fv_del2              =   6.2997319437323E-04
(PID.TID 0000.0001) %MON trAdv_CFL_u_max              =   2.4208058908984E-03
(PID.TID 0000.0001) %MON trAdv_CFL_v_max              =   2.2174055248765E-03
(PID.TID 0000.0001) %MON trAdv_CFL_w_max              =   2.4544215005019E-03
(PID.TID 0000.0001) %MON advcfl_uvel_max              =   2.4612718890701E-03
(PID.TID 0000.0001) %MON advcfl_vvel_max              =   2.1607595044854E-03
(PID.TID 0000.0001) %MON advcfl_wvel_max              =   2.9485062412594E-03
(PID.TID 0000.0001) %MON advcfl_W_hf_max              =   2.4544215005019E-03
(PID.TID 0000.0001) %MON pe_b_mean                    =   9.0744759011589E-06
(PID.TID 0000.0001) %MON ke_max                       =   2.4200242265628E-01
(PID.TID 0000.0001) %MON ke_mean                      =   2.9146130490610E-05
(PID.TID 0000.0001) %MON ke_vol                       =   1.3398160785827E+18
(PID.TID 0000.0001) %MON vort_r_min                   =  -4.1030363409336E-06
(PID.TID 0000.0001) %MON vort_r_max                   =   3.2048900150518E-06
(PID.TID 0000.0001) %MON vort_a_mean                  =  -2.0549865324846E-05
(PID.TID 0000.0001) %MON vort_a_sd                    =   7.5259483006062E-05
(PID.TID 0000.0001) %MON vort_p_mean                  =  -2.4783270247755E-05
(PID.TID 0000.0001) %MON vort_p_sd                    =   1.2810520796906E-04
(PID.TID 0000.0001) %MON surfExpan_theta_mean         =   5.9015609865653E-08
(PID.TID 0000.0001) %MON surfExpan_salt_mean          =   8.5895151719953E-07
(PID.TID 0000.0001) // =======================================================
(PID.TID 0000.0001) // End MONITOR dynamic field statistics
(PID.TID 0000.0001) // =======================================================
(PID.TID 0000.0001) // =======================================================
(PID.TID 0000.0001) // Begin MONITOR SEAICE statistics
(PID.TID 0000.0001) // =======================================================
(PID.TID 0000.0001) %MON seaice_tsnumber              =                    62
(PID.TID 0000.0001) %MON seaice_time_sec              =   5.5800000000000E+04
(PID.TID 0000.0001) %MON seaice_uice_max              =   6.8381047085807E-01
(PID.TID 0000.0001) %MON seaice_uice_min              =  -5.0913571232944E-01
(PID.TID 0000.0001) %MON seaice_uice_mean             =  -4.6412420566798E-03
(PID.TID 0000.0001) %MON seaice_uice_sd               =   3.8481871592882E-02
(PID.TID 0000.0001) %MON seaice_uice_del2             =   9.1273594721695E-04
(PID.TID 0000.0001) %MON seaice_vice_max              =   7.1531630657981E-01
(PID.TID 0000.0001) %MON seaice_vice_min              =  -6.3923216887696E-01
(PID.TID 0000.0001) %MON seaice_vice_mean             =  -1.1901967291478E-02
(PID.TID 0000.0001) %MON seaice_vice_sd               =   4.0317390160132E-02
(PID.TID 0000.0001) %MON seaice_vice_del2             =   9.7012784291485E-04
(PID.TID 0000.0001) %MON seaice_area_max              =   9.8696267246550E-01
(PID.TID 0000.0001) %MON seaice_area_min              =   0.0000000000000E+00
(PID.TID 0000.0001) %MON seaice_area_mean             =   6.2983337254035E-02
(PID.TID 0000.0001) %MON seaice_area_sd               =   2.2046023864984E-01
(PID.TID 0000.0001) %MON seaice_area_del2             =   1.5257786613609E-03
(PID.TID 0000.0001) %MON seaice_heff_max              =   8.2759433907814E+00
(PID.TID 0000.0001) %MON seaice_heff_min              =   0.0000000000000E+00
(PID.TID 0000.0001) %MON seaice_heff_mean             =   1.9504016231627E-01
(PID.TID 0000.0001) %MON seaice_heff_sd               =   9.4699720146131E-01
(PID.TID 0000.0001) %MON seaice_heff_del2             =   6.1296608996566E-03
(PID.TID 0000.0001) %MON seaice_hsnow_max             =   1.9878349458663E+00
(PID.TID 0000.0001) %MON seaice_hsnow_min             =   0.0000000000000E+00
(PID.TID 0000.0001) %MON seaice_hsnow_mean            =   2.1663314625074E-02
(PID.TID 0000.0001) %MON seaice_hsnow_sd              =   1.1597920473086E-01
(PID.TID 0000.0001) %MON seaice_hsnow_del2            =   1.4236249106272E-03
(PID.TID 0000.0001) // =======================================================
(PID.TID 0000.0001) // End MONITOR SEAICE statistics
(PID.TID 0000.0001) // =======================================================
 SEAICE_LSR: Residual Initial ipass,Uice,Vice=    1  2.67682434E-03  1.75229715E-03
 SEAICE_LSR (ipass=   1) iters,dU,Resid=     4  7.06906903E-05  1.37045215E-04
 SEAICE_LSR (ipass=   1) iters,dV,Resid=     4  2.93713114E-05  1.97801588E-05
 SEAICE_LSR: Residual Initial ipass,Uice,Vice=    2  1.83150713E-03  1.42736493E-03
 SEAICE_LSR (ipass=   2) iters,dU,Resid=     4  4.12099809E-05  9.59298990E-05
 SEAICE_LSR (ipass=   2) iters,dV,Resid=     4  1.65414358E-05  1.52733651E-05
 cg2d: Sum(rhs),rhsMax =  -1.13546888106485E+02  2.89219519992042E+01
(PID.TID 0000.0001)      cg2d_init_res =   3.88730292975924E-01
(PID.TID 0000.0001)      cg2d_iters(min,last) =      -1      11
(PID.TID 0000.0001)      cg2d_last_res =   3.08359040598174E-08
(PID.TID 0000.0001) // =======================================================
(PID.TID 0000.0001) // Begin MONITOR dynamic field statistics
(PID.TID 0000.0001) // =======================================================
(PID.TID 0000.0001) %MON time_tsnumber                =                    63
(PID.TID 0000.0001) %MON time_secondsf                =   5.6700000000000E+04
(PID.TID 0000.0001) %MON dynstat_eta_max              =   1.2912508612140E+00
(PID.TID 0000.0001) %MON dynstat_eta_min              =  -6.7629476828930E-01
(PID.TID 0000.0001) %MON dynstat_eta_mean             =   3.8159617301862E-02
(PID.TID 0000.0001) %MON dynstat_eta_sd               =   7.2467186048610E-02
(PID.TID 0000.0001) %MON dynstat_eta_del2             =   1.1571406307822E-03
(PID.TID 0000.0001) %MON dynstat_uvel_max             =   7.2003661675122E-01
(PID.TID 0000.0001) %MON dynstat_uvel_min             =  -6.4049266781326E-01
(PID.TID 0000.0001) %MON dynstat_uvel_mean            =  -1.7950159304531E-05
(PID.TID 0000.0001) %MON dynstat_uvel_sd              =   5.4205410020226E-03
(PID.TID 0000.0001) %MON dynstat_uvel_del2            =   8.4875705895970E-05
(PID.TID 0000.0001) %MON dynstat_vvel_max             =   6.1743551534343E-01
(PID.TID 0000.0001) %MON dynstat_vvel_min             =  -6.3457726202113E-01
(PID.TID 0000.0001) %MON dynstat_vvel_mean            =   9.5591512296963E-04
(PID.TID 0000.0001) %MON dynstat_vvel_sd              =   5.6988417573327E-03
(PID.TID 0000.0001) %MON dynstat_vvel_del2            =   9.1267572825606E-05
(PID.TID 0000.0001) %MON dynstat_wvel_max             =   1.3398831643257E-04
(PID.TID 0000.0001) %MON dynstat_wvel_min             =  -2.3543000755342E-04
(PID.TID 0000.0001) %MON dynstat_wvel_mean            =  -3.2079849310818E-07
(PID.TID 0000.0001) %MON dynstat_wvel_sd              =   7.0633288050090E-06
(PID.TID 0000.0001) %MON dynstat_wvel_del2            =   8.0089009397669E-08
(PID.TID 0000.0001) %MON dynstat_theta_max            =   2.1705667325087E+01
(PID.TID 0000.0001) %MON dynstat_theta_min            =   1.6126666547344E+01
(PID.TID 0000.0001) %MON dynstat_theta_mean           =   1.9997918156063E+01
(PID.TID 0000.0001) %MON dynstat_theta_sd             =   2.4951209201307E-02
(PID.TID 0000.0001) %MON dynstat_theta_del2           =   3.5778493092271E-04
(PID.TID 0000.0001) %MON dynstat_salt_max             =   3.5078398800284E+01
(PID.TID 0000.0001) %MON dynstat_salt_min             =   2.9216104341795E+01
(PID.TID 0000.0001) %MON dynstat_salt_mean            =   3.4999625225446E+01
(PID.TID 0000.0001) %MON dynstat_salt_sd              =   2.8364106522549E-02
(PID.TID 0000.0001) %MON dynstat_salt_del2            =   7.5240675294672E-04
(PID.TID 0000.0001) %MON dynstat_sst_max              =   2.1705667325087E+01
(PID.TID 0000.0001) %MON dynstat_sst_min              =   1.6126666547344E+01
(PID.TID 0000.0001) %MON dynstat_sst_mean             =   2.0055803984475E+01
(PID.TID 0000.0001) %MON dynstat_sst_sd               =   1.8162782239417E-01
(PID.TID 0000.0001) %MON dynstat_sst_del2             =   4.1636445808791E-03
(PID.TID 0000.0001) %MON dynstat_sss_max              =   3.5078398800284E+01
(PID.TID 0000.0001) %MON dynstat_sss_min              =   2.9216104341795E+01
(PID.TID 0000.0001) %MON dynstat_sss_mean             =   3.4981130418976E+01
(PID.TID 0000.0001) %MON dynstat_sss_sd               =   2.4210255928750E-01
(PID.TID 0000.0001) %MON dynstat_sss_del2             =   9.4491020632665E-03
(PID.TID 0000.0001) %MON forcing_qnet_max             =   3.3458740234375E+03
(PID.TID 0000.0001) %MON forcing_qnet_min             =  -3.9835837402344E+03
(PID.TID 0000.0001) %MON forcing_qnet_mean            =  -2.0883493310114E+01
(PID.TID 0000.0001) %MON forcing_qnet_sd              =   4.9054992047683E+02
(PID.TID 0000.0001) %MON forcing_qnet_del2            =   6.7771896131497E+00
(PID.TID 0000.0001) %MON forcing_qsw_max              =   0.0000000000000E+00
(PID.TID 0000.0001) %MON forcing_qsw_min              =  -1.0392680587160E+02
(PID.TID 0000.0001) %MON forcing_qsw_mean             =  -1.5667470409094E+01
(PID.TID 0000.0001) %MON forcing_qsw_sd               =   2.6919967784243E+01
(PID.TID 0000.0001) %MON forcing_qsw_del2             =   1.3069438701278E-01
(PID.TID 0000.0001) %MON forcing_empmr_max            =   5.8364239521325E-03
(PID.TID 0000.0001) %MON forcing_empmr_min            =  -8.3896063268185E-02
(PID.TID 0000.0001) %MON forcing_empmr_mean           =  -3.9821309277264E-04
(PID.TID 0000.0001) %MON forcing_empmr_sd             =   3.7221760537831E-03
(PID.TID 0000.0001) %MON forcing_empmr_del2           =   1.4629771057349E-04
(PID.TID 0000.0001) %MON forcing_fu_max               =   6.1520765230845E-01
(PID.TID 0000.0001) %MON forcing_fu_min               =  -6.2451975551605E-01
(PID.TID 0000.0001) %MON forcing_fu_mean              =  -1.0563183390050E-03
(PID.TID 0000.0001) %MON forcing_fu_sd                =   8.7902541159404E-02
(PID.TID 0000.0001) %MON forcing_fu_del2              =   7.4097353292610E-04
(PID.TID 0000.0001) %MON forcing_fv_max               =   4.0610409078912E-01
(PID.TID 0000.0001) %MON forcing_fv_min               =  -4.1737644827464E-01
(PID.TID 0000.0001) %MON forcing_fv_mean              =  -6.9828745725202E-03
(PID.TID 0000.0001) %MON forcing_fv_sd                =   7.4728221616011E-02
(PID.TID 0000.0001) %MON forcing_fv_del2              =   6.2646492715528E-04
(PID.TID 0000.0001) %MON trAdv_CFL_u_max              =   2.3665232595678E-03
(PID.TID 0000.0001) %MON trAdv_CFL_v_max              =   2.0717716030986E-03
(PID.TID 0000.0001) %MON trAdv_CFL_w_max              =   2.4196580871747E-03
(PID.TID 0000.0001) %MON advcfl_uvel_max              =   2.4011540840594E-03
(PID.TID 0000.0001) %MON advcfl_vvel_max              =   2.0149173086696E-03
(PID.TID 0000.0001) %MON advcfl_wvel_max              =   2.9181239397629E-03
(PID.TID 0000.0001) %MON advcfl_W_hf_max              =   2.4196580871747E-03
(PID.TID 0000.0001) %MON pe_b_mean                    =   8.9357368399970E-06
(PID.TID 0000.0001) %MON ke_max                       =   2.2172431587286E-01
(PID.TID 0000.0001) %MON ke_mean                      =   2.8990819320150E-05
(PID.TID 0000.0001) %MON ke_vol                       =   1.3398162051375E+18
(PID.TID 0000.0001) %MON vort_r_min                   =  -4.1236104325532E-06
(PID.TID 0000.0001) %MON vort_r_max                   =   3.1730151527873E-06
(PID.TID 0000.0001) %MON vort_a_mean                  =  -2.0549865324846E-05
(PID.TID 0000.0001) %MON vort_a_sd                    =   7.5259484724604E-05
(PID.TID 0000.0001) %MON vort_p_mean                  =  -2.4783267621687E-05
(PID.TID 0000.0001) %MON vort_p_sd                    =   1.2810522437444E-04
(PID.TID 0000.0001) %MON surfExpan_theta_mean         =   3.7181447874852E-08
(PID.TID 0000.0001) %MON surfExpan_salt_mean          =   8.6093544572525E-07
(PID.TID 0000.0001) // =======================================================
(PID.TID 0000.0001) // End MONITOR dynamic field statistics
(PID.TID 0000.0001) // =======================================================
(PID.TID 0000.0001) // =======================================================
(PID.TID 0000.0001) // Begin MONITOR SEAICE statistics
(PID.TID 0000.0001) // =======================================================
(PID.TID 0000.0001) %MON seaice_tsnumber              =                    63
(PID.TID 0000.0001) %MON seaice_time_sec              =   5.6700000000000E+04
(PID.TID 0000.0001) %MON seaice_uice_max              =   6.7958380204094E-01
(PID.TID 0000.0001) %MON seaice_uice_min              =  -5.2953767143602E-01
(PID.TID 0000.0001) %MON seaice_uice_mean             =  -4.5565749840543E-03
(PID.TID 0000.0001) %MON seaice_uice_sd               =   3.8911221558004E-02
(PID.TID 0000.0001) %MON seaice_uice_del2             =   9.1439439201340E-04
(PID.TID 0000.0001) %MON seaice_vice_max              =   6.7907507195041E-01
(PID.TID 0000.0001) %MON seaice_vice_min              =  -6.3560330096677E-01
(PID.TID 0000.0001) %MON seaice_vice_mean             =  -1.1981244823181E-02
(PID.TID 0000.0001) %MON seaice_vice_sd               =   3.9982139695470E-02
(PID.TID 0000.0001) %MON seaice_vice_del2             =   9.6559194720847E-04
(PID.TID 0000.0001) %MON seaice_area_max              =   9.8661982763878E-01
(PID.TID 0000.0001) %MON seaice_area_min              =   0.0000000000000E+00
(PID.TID 0000.0001) %MON seaice_area_mean             =   6.2892265205439E-02
(PID.TID 0000.0001) %MON seaice_area_sd               =   2.2021487974556E-01
(PID.TID 0000.0001) %MON seaice_area_del2             =   1.5217926145056E-03
(PID.TID 0000.0001) %MON seaice_heff_max              =   8.2733340933973E+00
(PID.TID 0000.0001) %MON seaice_heff_min              =   0.0000000000000E+00
(PID.TID 0000.0001) %MON seaice_heff_mean             =   1.9486884827893E-01
(PID.TID 0000.0001) %MON seaice_heff_sd               =   9.4650754402712E-01
(PID.TID 0000.0001) %MON seaice_heff_del2             =   6.1280468811982E-03
(PID.TID 0000.0001) %MON seaice_hsnow_max             =   1.9871092724938E+00
(PID.TID 0000.0001) %MON seaice_hsnow_min             =   0.0000000000000E+00
(PID.TID 0000.0001) %MON seaice_hsnow_mean            =   2.1644090004261E-02
(PID.TID 0000.0001) %MON seaice_hsnow_sd              =   1.1591868488747E-01
(PID.TID 0000.0001) %MON seaice_hsnow_del2            =   1.4229787714956E-03
(PID.TID 0000.0001) // =======================================================
(PID.TID 0000.0001) // End MONITOR SEAICE statistics
(PID.TID 0000.0001) // =======================================================
 SEAICE_LSR: Residual Initial ipass,Uice,Vice=    1  2.75982441E-03  1.85051700E-03
 SEAICE_LSR (ipass=   1) iters,dU,Resid=     4  5.70284694E-05  1.18904584E-04
 SEAICE_LSR (ipass=   1) iters,dV,Resid=     4  3.53802000E-05  2.11880286E-05
 SEAICE_LSR: Residual Initial ipass,Uice,Vice=    2  1.96961949E-03  1.53280462E-03
 SEAICE_LSR (ipass=   2) iters,dU,Resid=     4  3.48291590E-05  8.08985247E-05
 SEAICE_LSR (ipass=   2) iters,dV,Resid=     4  2.08624493E-05  1.62510507E-05
 cg2d: Sum(rhs),rhsMax =  -1.14561913822418E+02  2.89218787408688E+01
(PID.TID 0000.0001)      cg2d_init_res =   3.78672074280549E-01
(PID.TID 0000.0001)      cg2d_iters(min,last) =      -1      11
(PID.TID 0000.0001)      cg2d_last_res =   2.98300485276222E-08
(PID.TID 0000.0001) // =======================================================
(PID.TID 0000.0001) // Begin MONITOR dynamic field statistics
(PID.TID 0000.0001) // =======================================================
(PID.TID 0000.0001) %MON time_tsnumber                =                    64
(PID.TID 0000.0001) %MON time_secondsf                =   5.7600000000000E+04
(PID.TID 0000.0001) %MON dynstat_eta_max              =   1.2611870210102E+00
(PID.TID 0000.0001) %MON dynstat_eta_min              =  -7.3389216521580E-01
(PID.TID 0000.0001) %MON dynstat_eta_mean             =   3.8500638709870E-02
(PID.TID 0000.0001) %MON dynstat_eta_sd               =   7.2101919132462E-02
(PID.TID 0000.0001) %MON dynstat_eta_del2             =   1.1552752628516E-03
(PID.TID 0000.0001) %MON dynstat_uvel_max             =   6.9154309333474E-01
(PID.TID 0000.0001) %MON dynstat_uvel_min             =  -6.5179618588922E-01
(PID.TID 0000.0001) %MON dynstat_uvel_mean            =  -9.1134180494952E-06
(PID.TID 0000.0001) %MON dynstat_uvel_sd              =   5.4453949814612E-03
(PID.TID 0000.0001) %MON dynstat_uvel_del2            =   8.4014715678811E-05
(PID.TID 0000.0001) %MON dynstat_vvel_max             =   5.6494966395374E-01
(PID.TID 0000.0001) %MON dynstat_vvel_min             =  -6.2351844597028E-01
(PID.TID 0000.0001) %MON dynstat_vvel_mean            =   9.5437453636491E-04
(PID.TID 0000.0001) %MON dynstat_vvel_sd              =   5.6370421168755E-03
(PID.TID 0000.0001) %MON dynstat_vvel_del2            =   9.0048775653482E-05
(PID.TID 0000.0001) %MON dynstat_wvel_max             =   1.3282106397919E-04
(PID.TID 0000.0001) %MON dynstat_wvel_min             =  -2.3171057920133E-04
(PID.TID 0000.0001) %MON dynstat_wvel_mean            =  -3.0473683665383E-07
(PID.TID 0000.0001) %MON dynstat_wvel_sd              =   7.0175315607652E-06
(PID.TID 0000.0001) %MON dynstat_wvel_del2            =   7.9478470046544E-08
(PID.TID 0000.0001) %MON dynstat_theta_max            =   2.1723907587834E+01
(PID.TID 0000.0001) %MON dynstat_theta_min            =   1.6119677800867E+01
(PID.TID 0000.0001) %MON dynstat_theta_mean           =   1.9997919464829E+01
(PID.TID 0000.0001) %MON dynstat_theta_sd             =   2.5075667611390E-02
(PID.TID 0000.0001) %MON dynstat_theta_del2           =   3.5906662260617E-04
(PID.TID 0000.0001) %MON dynstat_salt_max             =   3.5078389689201E+01
(PID.TID 0000.0001) %MON dynstat_salt_min             =   2.9175097799562E+01
(PID.TID 0000.0001) %MON dynstat_salt_mean            =   3.4999622107221E+01
(PID.TID 0000.0001) %MON dynstat_salt_sd              =   2.8570691951536E-02
(PID.TID 0000.0001) %MON dynstat_salt_del2            =   7.5762440698123E-04
(PID.TID 0000.0001) %MON dynstat_sst_max              =   2.1723907587834E+01
(PID.TID 0000.0001) %MON dynstat_sst_min              =   1.6119677800867E+01
(PID.TID 0000.0001) %MON dynstat_sst_mean             =   2.0056575775950E+01
(PID.TID 0000.0001) %MON dynstat_sst_sd               =   1.8260527341027E-01
(PID.TID 0000.0001) %MON dynstat_sst_del2             =   4.1805365731408E-03
(PID.TID 0000.0001) %MON dynstat_sss_max              =   3.5078389689201E+01
(PID.TID 0000.0001) %MON dynstat_sss_min              =   2.9175097799562E+01
(PID.TID 0000.0001) %MON dynstat_sss_mean             =   3.4980959077247E+01
(PID.TID 0000.0001) %MON dynstat_sss_sd               =   2.4386741988781E-01
(PID.TID 0000.0001) %MON dynstat_sss_del2             =   9.5146499510537E-03
(PID.TID 0000.0001) %MON forcing_qnet_max             =   3.3061328125000E+03
(PID.TID 0000.0001) %MON forcing_qnet_min             =  -3.9354982910156E+03
(PID.TID 0000.0001) %MON forcing_qnet_mean            =  -2.1209260030208E+01
(PID.TID 0000.0001) %MON forcing_qnet_sd              =   4.8848669531549E+02
(PID.TID 0000.0001) %MON forcing_qnet_del2            =   6.7135675062161E+00
(PID.TID 0000.0001) %MON forcing_qsw_max              =   0.0000000000000E+00
(PID.TID 0000.0001) %MON forcing_qsw_min              =  -1.0502262510235E+02
(PID.TID 0000.0001) %MON forcing_qsw_mean             =  -1.5728747656190E+01
(PID.TID 0000.0001) %MON forcing_qsw_sd               =   2.7180717091287E+01
(PID.TID 0000.0001) %MON forcing_qsw_del2             =   1.3018548855631E-01
(PID.TID 0000.0001) %MON forcing_empmr_max            =   5.7762991636992E-03
(PID.TID 0000.0001) %MON forcing_empmr_min            =  -8.3031803369522E-02
(PID.TID 0000.0001) %MON forcing_empmr_mean           =  -3.9217461920909E-04
(PID.TID 0000.0001) %MON forcing_empmr_sd             =   3.6848237236681E-03
(PID.TID 0000.0001) %MON forcing_empmr_del2           =   1.4479087129763E-04
(PID.TID 0000.0001) %MON forcing_fu_max               =   6.0780428179781E-01
(PID.TID 0000.0001) %MON forcing_fu_min               =  -6.2729510838467E-01
(PID.TID 0000.0001) %MON forcing_fu_mean              =  -9.8991475742949E-04
(PID.TID 0000.0001) %MON forcing_fu_sd                =   8.7804077078305E-02
(PID.TID 0000.0001) %MON forcing_fu_del2              =   7.3953784622951E-04
(PID.TID 0000.0001) %MON forcing_fv_max               =   4.0356635567390E-01
(PID.TID 0000.0001) %MON forcing_fv_min               =  -4.1436528823590E-01
(PID.TID 0000.0001) %MON forcing_fv_mean              =  -7.0127399243181E-03
(PID.TID 0000.0001) %MON forcing_fv_sd                =   7.4297252369165E-02
(PID.TID 0000.0001) %MON forcing_fv_del2              =   6.2336954900756E-04
(PID.TID 0000.0001) %MON trAdv_CFL_u_max              =   2.2773036183724E-03
(PID.TID 0000.0001) %MON trAdv_CFL_v_max              =   1.9200507807510E-03
(PID.TID 0000.0001) %MON trAdv_CFL_w_max              =   2.3804357694865E-03
(PID.TID 0000.0001) %MON advcfl_uvel_max              =   2.3061348329143E-03
(PID.TID 0000.0001) %MON advcfl_vvel_max              =   1.8436368303082E-03
(PID.TID 0000.0001) %MON advcfl_wvel_max              =   2.8880627258964E-03
(PID.TID 0000.0001) %MON advcfl_W_hf_max              =   2.3804357694865E-03
(PID.TID 0000.0001) %MON pe_b_mean                    =   8.9002156281120E-06
(PID.TID 0000.0001) %MON ke_max                       =   2.1321573059795E-01
(PID.TID 0000.0001) %MON ke_mean                      =   2.8788412824600E-05
(PID.TID 0000.0001) %MON ke_vol                       =   1.3398163311414E+18
(PID.TID 0000.0001) %MON vort_r_min                   =  -4.1246213319308E-06
(PID.TID 0000.0001) %MON vort_r_max                   =   3.1069694673119E-06
(PID.TID 0000.0001) %MON vort_a_mean                  =  -2.0549865324846E-05
(PID.TID 0000.0001) %MON vort_a_sd                    =   7.5259485523221E-05
(PID.TID 0000.0001) %MON vort_p_mean                  =  -2.4783265047182E-05
(PID.TID 0000.0001) %MON vort_p_sd                    =   1.2810523887924E-04
(PID.TID 0000.0001) %MON surfExpan_theta_mean         =   1.2736910273002E-08
(PID.TID 0000.0001) %MON surfExpan_salt_mean          =   8.6236011061905E-07
(PID.TID 0000.0001) // =======================================================
(PID.TID 0000.0001) // End MONITOR dynamic field statistics
(PID.TID 0000.0001) // =======================================================
(PID.TID 0000.0001) // =======================================================
(PID.TID 0000.0001) // Begin MONITOR SEAICE statistics
(PID.TID 0000.0001) // =======================================================
(PID.TID 0000.0001) %MON seaice_tsnumber              =                    64
(PID.TID 0000.0001) %MON seaice_time_sec              =   5.7600000000000E+04
(PID.TID 0000.0001) %MON seaice_uice_max              =   6.6380286861526E-01
(PID.TID 0000.0001) %MON seaice_uice_min              =  -5.4734662187773E-01
(PID.TID 0000.0001) %MON seaice_uice_mean             =  -4.4687862013225E-03
(PID.TID 0000.0001) %MON seaice_uice_sd               =   3.9317976062242E-02
(PID.TID 0000.0001) %MON seaice_uice_del2             =   9.1337082495813E-04
(PID.TID 0000.0001) %MON seaice_vice_max              =   6.3381999860554E-01
(PID.TID 0000.0001) %MON seaice_vice_min              =  -6.2830164962695E-01
(PID.TID 0000.0001) %MON seaice_vice_mean             =  -1.2026728234162E-02
(PID.TID 0000.0001) %MON seaice_vice_sd               =   3.9580707199507E-02
(PID.TID 0000.0001) %MON seaice_vice_del2             =   9.5510507537912E-04
(PID.TID 0000.0001) %MON seaice_area_max              =   9.8627447777155E-01
(PID.TID 0000.0001) %MON seaice_area_min              =   0.0000000000000E+00
(PID.TID 0000.0001) %MON seaice_area_mean             =   6.2801330298810E-02
(PID.TID 0000.0001) %MON seaice_area_sd               =   2.1996993321005E-01
(PID.TID 0000.0001) %MON seaice_area_del2             =   1.5178425122938E-03
(PID.TID 0000.0001) %MON seaice_heff_max              =   8.2707257263255E+00
(PID.TID 0000.0001) %MON seaice_heff_min              =   0.0000000000000E+00
(PID.TID 0000.0001) %MON seaice_heff_mean             =   1.9469770343530E-01
(PID.TID 0000.0001) %MON seaice_heff_sd               =   9.4601795555644E-01
(PID.TID 0000.0001) %MON seaice_heff_del2             =   6.1264371650828E-03
(PID.TID 0000.0001) %MON seaice_hsnow_max             =   1.9864019635228E+00
(PID.TID 0000.0001) %MON seaice_hsnow_min             =   0.0000000000000E+00
(PID.TID 0000.0001) %MON seaice_hsnow_mean            =   2.1624773337301E-02
(PID.TID 0000.0001) %MON seaice_hsnow_sd              =   1.1585818800716E-01
(PID.TID 0000.0001) %MON seaice_hsnow_del2            =   1.4223361973120E-03
(PID.TID 0000.0001) // =======================================================
(PID.TID 0000.0001) // End MONITOR SEAICE statistics
(PID.TID 0000.0001) // =======================================================
 Compute Stats, Diag. #    211  SIarea    vol(   0 ): 1.456E+15  Parms: SM      M1      
 Compute Stats, Diag. #    214  SIheff    vol(   0 ): 1.456E+15  Parms: SM      M1      
 Compute Stats, Diag. #    216  SIhsnow   vol(   0 ): 1.456E+15  Parms: SM      M1      
 Compute Stats, Diag. #     83  sIceLoad  vol(   0 ): 1.456E+15  Parms: SM      U1      
 Compute Stats, Diag. #    220  SIuice    vol(   0 ): 1.383E+15  Parms: UU      M1      
 Compute Stats, Diag. #    221  SIvice    vol(   0 ): 1.391E+15  Parms: VV      M1      
 Compute Stats, Diag. #    222  SItaux    vol(   0 ): 1.383E+15  Parms: UU      U1      
 Compute Stats, Diag. #    223  SItauy    vol(   0 ): 1.391E+15  Parms: VV      U1      
 Compute Stats, Diag. #    282  SIareaN   vol(   0 ): 7.278E+15  Parms: SM      MX      
 Compute Stats, Diag. #    281  SIheffN   vol(   0 ): 7.278E+15  Parms: SM      MX      
 Compute Stats, Diag. #    283  SIhsnowN  vol(   0 ): 7.278E+15  Parms: SM      MX      
 Compute Stats, Diag. #    287  SIqSnow   vol(   0 ): 7.278E+15  Parms: SM      MX      
 Compute Stats, Diag. #    286  SIqIce    vol(   0 ): 2.911E+16  Parms: SM      MX      
 Compute Stats, Diag. #    288  SImeltPd  vol(   0 ): 7.278E+15  Parms: SM      MX      
 Compute Stats, Diag. #    285  SItIces   vol(   0 ): 7.278E+15  Parms: SM      MX      
 Compute Stats, Diag. #    289  SIiceAge  vol(   0 ): 7.278E+15  Parms: SM      MX      
 Compute Stats, Diag. #    290  SI_dArea  vol(   0 ): 7.278E+15  Parms: SM      MX      
 Compute Stats, Diag. #    291  SI_dHeff  vol(   0 ): 7.278E+15  Parms: SM      MX      
 Compute Stats, Diag. #    292  SI_dHsnw  vol(   0 ): 7.278E+15  Parms: SM      MX      
 Compute Stats, Diag. #    295  SI_dQSnw  vol(   0 ): 7.278E+15  Parms: SM      MX      
 Compute Stats, Diag. #    294  SI_dQIce  vol(   0 ): 2.911E+16  Parms: SM      MX      
 SEAICE_LSR: Residual Initial ipass,Uice,Vice=    1  2.86590342E-03  1.98668030E-03
 SEAICE_LSR (ipass=   1) iters,dU,Resid=     4  8.26947405E-05  1.03020250E-04
 SEAICE_LSR (ipass=   1) iters,dV,Resid=     4  3.48635179E-05  2.36061451E-05
 SEAICE_LSR: Residual Initial ipass,Uice,Vice=    2  2.12281828E-03  1.61119615E-03
 SEAICE_LSR (ipass=   2) iters,dU,Resid=     4  4.46919011E-05  7.14897655E-05
 SEAICE_LSR (ipass=   2) iters,dV,Resid=     4  2.08413985E-05  1.69301456E-05
 cg2d: Sum(rhs),rhsMax =  -1.09969966799219E+02  3.03957531301489E+01
(PID.TID 0000.0001)      cg2d_init_res =   3.49257217413137E-01
(PID.TID 0000.0001)      cg2d_iters(min,last) =      -1      10
(PID.TID 0000.0001)      cg2d_last_res =   9.14639167305924E-08
(PID.TID 0000.0001) // =======================================================
(PID.TID 0000.0001) // Begin MONITOR dynamic field statistics
(PID.TID 0000.0001) // =======================================================
(PID.TID 0000.0001) %MON time_tsnumber                =                    65
(PID.TID 0000.0001) %MON time_secondsf                =   5.8500000000000E+04
(PID.TID 0000.0001) %MON dynstat_eta_max              =   1.3252732756582E+00
(PID.TID 0000.0001) %MON dynstat_eta_min              =  -1.0084733430224E+00
(PID.TID 0000.0001) %MON dynstat_eta_mean             =   3.8840800831550E-02
(PID.TID 0000.0001) %MON dynstat_eta_sd               =   7.2200271308137E-02
(PID.TID 0000.0001) %MON dynstat_eta_del2             =   1.1785426430373E-03
(PID.TID 0000.0001) %MON dynstat_uvel_max             =   6.5355922362418E-01
(PID.TID 0000.0001) %MON dynstat_uvel_min             =  -6.6037818222913E-01
(PID.TID 0000.0001) %MON dynstat_uvel_mean            =  -1.8057705921268E-06
(PID.TID 0000.0001) %MON dynstat_uvel_sd              =   5.4675044922528E-03
(PID.TID 0000.0001) %MON dynstat_uvel_del2            =   8.3002066967649E-05
(PID.TID 0000.0001) %MON dynstat_vvel_max             =   5.0586733867839E-01
(PID.TID 0000.0001) %MON dynstat_vvel_min             =  -6.0891781479217E-01
(PID.TID 0000.0001) %MON dynstat_vvel_mean            =   9.4900334813544E-04
(PID.TID 0000.0001) %MON dynstat_vvel_sd              =   5.5713076213882E-03
(PID.TID 0000.0001) %MON dynstat_vvel_del2            =   8.8356132549264E-05
(PID.TID 0000.0001) %MON dynstat_wvel_max             =   1.3139887798453E-04
(PID.TID 0000.0001) %MON dynstat_wvel_min             =  -2.2759306028814E-04
(PID.TID 0000.0001) %MON dynstat_wvel_mean            =  -2.9187238731653E-07
(PID.TID 0000.0001) %MON dynstat_wvel_sd              =   6.9724044026168E-06
(PID.TID 0000.0001) %MON dynstat_wvel_del2            =   7.8909002837004E-08
(PID.TID 0000.0001) %MON dynstat_theta_max            =   2.1741941034881E+01
(PID.TID 0000.0001) %MON dynstat_theta_min            =   1.6112860938173E+01
(PID.TID 0000.0001) %MON dynstat_theta_mean           =   1.9997920891354E+01
(PID.TID 0000.0001) %MON dynstat_theta_sd             =   2.5200476429047E-02
(PID.TID 0000.0001) %MON dynstat_theta_del2           =   3.6034461202805E-04
(PID.TID 0000.0001) %MON dynstat_salt_max             =   3.5078380607533E+01
(PID.TID 0000.0001) %MON dynstat_salt_min             =   2.9134963284117E+01
(PID.TID 0000.0001) %MON dynstat_salt_mean            =   3.4999619014918E+01
(PID.TID 0000.0001) %MON dynstat_salt_sd              =   2.8773098135237E-02
(PID.TID 0000.0001) %MON dynstat_salt_del2            =   7.6272489007101E-04
(PID.TID 0000.0001) %MON dynstat_sst_max              =   2.1741941034881E+01
(PID.TID 0000.0001) %MON dynstat_sst_min              =   1.6112860938173E+01
(PID.TID 0000.0001) %MON dynstat_sst_mean             =   2.0057358880982E+01
(PID.TID 0000.0001) %MON dynstat_sst_sd               =   1.8357835160490E-01
(PID.TID 0000.0001) %MON dynstat_sst_del2             =   4.1973313338419E-03
(PID.TID 0000.0001) %MON dynstat_sss_max              =   3.5078380607533E+01
(PID.TID 0000.0001) %MON dynstat_sss_min              =   2.9134963284117E+01
(PID.TID 0000.0001) %MON dynstat_sss_mean             =   3.4980792667993E+01
(PID.TID 0000.0001) %MON dynstat_sss_sd               =   2.4559744018046E-01
(PID.TID 0000.0001) %MON dynstat_sss_del2             =   9.5787240331627E-03
(PID.TID 0000.0001) %MON forcing_qnet_max             =   3.2678969726562E+03
(PID.TID 0000.0001) %MON forcing_qnet_min             =  -3.8869052734375E+03
(PID.TID 0000.0001) %MON forcing_qnet_mean            =  -2.3187832594495E+01
(PID.TID 0000.0001) %MON forcing_qnet_sd              =   4.8664667055705E+02
(PID.TID 0000.0001) %MON forcing_qnet_del2            =   6.6374836298219E+00
(PID.TID 0000.0001) %MON forcing_qsw_max              =   0.0000000000000E+00
(PID.TID 0000.0001) %MON forcing_qsw_min              =  -1.0671697894877E+02
(PID.TID 0000.0001) %MON forcing_qsw_mean             =  -1.6100593435804E+01
(PID.TID 0000.0001) %MON forcing_qsw_sd               =   2.7991519838211E+01
(PID.TID 0000.0001) %MON forcing_qsw_del2             =   1.2960843608717E-01
(PID.TID 0000.0001) %MON forcing_empmr_max            =   5.7168635539711E-03
(PID.TID 0000.0001) %MON forcing_empmr_min            =  -8.2175932824612E-02
(PID.TID 0000.0001) %MON forcing_empmr_mean           =  -3.9118643993132E-04
(PID.TID 0000.0001) %MON forcing_empmr_sd             =   3.6476092829517E-03
(PID.TID 0000.0001) %MON forcing_empmr_del2           =   1.4329923483798E-04
(PID.TID 0000.0001) %MON forcing_fu_max               =   6.0094658498521E-01
(PID.TID 0000.0001) %MON forcing_fu_min               =  -6.2649838999641E-01
(PID.TID 0000.0001) %MON forcing_fu_mean              =  -9.2529481424736E-04
(PID.TID 0000.0001) %MON forcing_fu_sd                =   8.7638309015663E-02
(PID.TID 0000.0001) %MON forcing_fu_del2              =   7.3741304405841E-04
(PID.TID 0000.0001) %MON forcing_fv_max               =   4.0115555433466E-01
(PID.TID 0000.0001) %MON forcing_fv_min               =  -4.1106374973160E-01
(PID.TID 0000.0001) %MON forcing_fv_mean              =  -7.0436618755351E-03
(PID.TID 0000.0001) %MON forcing_fv_sd                =   7.3880823652014E-02
(PID.TID 0000.0001) %MON forcing_fv_del2              =   6.1974859684766E-04
(PID.TID 0000.0001) %MON trAdv_CFL_u_max              =   2.1561224093595E-03
(PID.TID 0000.0001) %MON trAdv_CFL_v_max              =   1.8264712805714E-03
(PID.TID 0000.0001) %MON trAdv_CFL_w_max              =   2.3372405978224E-03
(PID.TID 0000.0001) %MON advcfl_uvel_max              =   2.1794674916124E-03
(PID.TID 0000.0001) %MON advcfl_vvel_max              =   1.7802968112928E-03
(PID.TID 0000.0001) %MON advcfl_wvel_max              =   2.8582933156387E-03
(PID.TID 0000.0001) %MON advcfl_W_hf_max              =   2.3372405978224E-03
(PID.TID 0000.0001) %MON pe_b_mean                    =   8.9541691393537E-06
(PID.TID 0000.0001) %MON ke_max                       =   2.1334008489268E-01
(PID.TID 0000.0001) %MON ke_mean                      =   2.8552677905983E-05
(PID.TID 0000.0001) %MON ke_vol                       =   1.3398164552346E+18
(PID.TID 0000.0001) %MON vort_r_min                   =  -4.1053847698321E-06
(PID.TID 0000.0001) %MON vort_r_max                   =   3.0089736986018E-06
(PID.TID 0000.0001) %MON vort_a_mean                  =  -2.0549865324846E-05
(PID.TID 0000.0001) %MON vort_a_sd                    =   7.5259485424227E-05
(PID.TID 0000.0001) %MON vort_p_mean                  =  -2.4783262545903E-05
(PID.TID 0000.0001) %MON vort_p_sd                    =   1.2810525055580E-04
(PID.TID 0000.0001) %MON surfExpan_theta_mean         =  -1.3584162015089E-08
(PID.TID 0000.0001) %MON surfExpan_salt_mean          =   8.6326624060625E-07
(PID.TID 0000.0001) // =======================================================
(PID.TID 0000.0001) // End MONITOR dynamic field statistics
(PID.TID 0000.0001) // =======================================================
(PID.TID 0000.0001) // =======================================================
(PID.TID 0000.0001) // Begin MONITOR SEAICE statistics
(PID.TID 0000.0001) // =======================================================
(PID.TID 0000.0001) %MON seaice_tsnumber              =                    65
(PID.TID 0000.0001) %MON seaice_time_sec              =   5.8500000000000E+04
(PID.TID 0000.0001) %MON seaice_uice_max              =   6.3729246345037E-01
(PID.TID 0000.0001) %MON seaice_uice_min              =  -5.6228237430572E-01
(PID.TID 0000.0001) %MON seaice_uice_mean             =  -4.3973466533156E-03
(PID.TID 0000.0001) %MON seaice_uice_sd               =   3.9718413895900E-02
(PID.TID 0000.0001) %MON seaice_uice_del2             =   9.1060733809584E-04
(PID.TID 0000.0001) %MON seaice_vice_max              =   5.8071358316009E-01
(PID.TID 0000.0001) %MON seaice_vice_min              =  -6.1735218485378E-01
(PID.TID 0000.0001) %MON seaice_vice_mean             =  -1.2065317681258E-02
(PID.TID 0000.0001) %MON seaice_vice_sd               =   3.9143305928310E-02
(PID.TID 0000.0001) %MON seaice_vice_del2             =   9.3902991921687E-04
(PID.TID 0000.0001) %MON seaice_area_max              =   9.8592661016770E-01
(PID.TID 0000.0001) %MON seaice_area_min              =   0.0000000000000E+00
(PID.TID 0000.0001) %MON seaice_area_mean             =   6.2710555244208E-02
(PID.TID 0000.0001) %MON seaice_area_sd               =   2.1972539945734E-01
(PID.TID 0000.0001) %MON seaice_area_del2             =   1.5139294579256E-03
(PID.TID 0000.0001) %MON seaice_heff_max              =   8.2681175409008E+00
(PID.TID 0000.0001) %MON seaice_heff_min              =   0.0000000000000E+00
(PID.TID 0000.0001) %MON seaice_heff_mean             =   1.9452669923737E-01
(PID.TID 0000.0001) %MON seaice_heff_sd               =   9.4552841935298E-01
(PID.TID 0000.0001) %MON seaice_heff_del2             =   6.1248309286894E-03
(PID.TID 0000.0001) %MON seaice_hsnow_max             =   1.9856754531246E+00
(PID.TID 0000.0001) %MON seaice_hsnow_min             =   0.0000000000000E+00
(PID.TID 0000.0001) %MON seaice_hsnow_mean            =   2.1605373664589E-02
(PID.TID 0000.0001) %MON seaice_hsnow_sd              =   1.1579752707799E-01
(PID.TID 0000.0001) %MON seaice_hsnow_del2            =   1.4217030814610E-03
(PID.TID 0000.0001) // =======================================================
(PID.TID 0000.0001) // End MONITOR SEAICE statistics
(PID.TID 0000.0001) // =======================================================
 Computing Diagnostic #    211  SIarea       Counter:       1   Parms: SM      M1      
 Computing Diagnostic #    214  SIheff       Counter:       1   Parms: SM      M1      
 Computing Diagnostic #    216  SIhsnow      Counter:       1   Parms: SM      M1      
 Computing Diagnostic #     83  sIceLoad     Counter:       1   Parms: SM      U1      
 Computing Diagnostic #    220  SIuice       Counter:       1   Parms: UU      M1      
           Vector  Mate for  SIuice       Diagnostic #    221  SIvice   exists 
 Computing Diagnostic #    221  SIvice       Counter:       1   Parms: VV      M1      
           Vector  Mate for  SIvice       Diagnostic #    220  SIuice   exists 
 Computing Diagnostic #    222  SItaux       Counter:       1   Parms: UU      U1      
           Vector  Mate for  SItaux       Diagnostic #    223  SItauy   exists 
 Computing Diagnostic #    223  SItauy       Counter:       1   Parms: VV      U1      
           Vector  Mate for  SItauy       Diagnostic #    222  SItaux   exists 
 Computing Diagnostic #    284  CPLoWGHT     Counter:       1   Parms: SM      M1      
 Computing Diagnostic #    282  SIareaN      Counter:       1   Parms: SM      MX      
 Computing Diagnostic #    281  SIheffN      Counter:       1   Parms: SM      MX      
 Computing Diagnostic #    283  SIhsnowN     Counter:       1   Parms: SM      MX      
 Computing Diagnostic #    287  SIqSnow      Counter:       1   Parms: SM      MX      
 Computing Diagnostic #    288  SImeltPd     Counter:       1   Parms: SM      MX      
 Computing Diagnostic #    285  SItIces      Counter:       1   Parms: SM      MX      
 Computing Diagnostic #    289  SIiceAge     Counter:       1   Parms: SM      MX      
 Computing Diagnostic #    290  SI_dArea     Counter:       1   Parms: SM      MX      
 Computing Diagnostic #    291  SI_dHeff     Counter:       1   Parms: SM      MX      
 Computing Diagnostic #    292  SI_dHsnw     Counter:       1   Parms: SM      MX      
 Computing Diagnostic #    295  SI_dQSnw     Counter:       1   Parms: SM      MX      
 Computing Diagnostic #    286  SIqIce       Counter:       1   Parms: SM      MX      
 Computing Diagnostic #    294  SI_dQIce     Counter:       1   Parms: SM      MX      
 SEAICE_LSR: Residual Initial ipass,Uice,Vice=    1  2.86738072E-03  2.14304087E-03
 SEAICE_LSR (ipass=   1) iters,dU,Resid=     6  2.15714102E-05  4.31915428E-05
 SEAICE_LSR (ipass=   1) iters,dV,Resid=     6  3.86505152E-06  9.00778544E-06
 SEAICE_LSR: Residual Initial ipass,Uice,Vice=    2  2.12555756E-03  1.74951159E-03
 SEAICE_LSR (ipass=   2) iters,dU,Resid=     4  6.61961848E-05  5.29765859E-05
 SEAICE_LSR (ipass=   2) iters,dV,Resid=     4  1.92846120E-05  1.83736692E-05
 cg2d: Sum(rhs),rhsMax =  -1.06000453230448E+02  3.18076472149941E+01
(PID.TID 0000.0001)      cg2d_init_res =   3.22015404854123E-01
(PID.TID 0000.0001)      cg2d_iters(min,last) =      -1      10
(PID.TID 0000.0001)      cg2d_last_res =   7.48798527159300E-08
(PID.TID 0000.0001) // =======================================================
(PID.TID 0000.0001) // Begin MONITOR dynamic field statistics
(PID.TID 0000.0001) // =======================================================
(PID.TID 0000.0001) %MON time_tsnumber                =                    66
(PID.TID 0000.0001) %MON time_secondsf                =   5.9400000000000E+04
(PID.TID 0000.0001) %MON dynstat_eta_max              =   1.3866433460418E+00
(PID.TID 0000.0001) %MON dynstat_eta_min              =  -1.2554167544722E+00
(PID.TID 0000.0001) %MON dynstat_eta_mean             =   3.9177835765214E-02
(PID.TID 0000.0001) %MON dynstat_eta_sd               =   7.2674103648851E-02
(PID.TID 0000.0001) %MON dynstat_eta_del2             =   1.2210367423016E-03
(PID.TID 0000.0001) %MON dynstat_uvel_max             =   6.0718573670310E-01
(PID.TID 0000.0001) %MON dynstat_uvel_min             =  -6.6600648483716E-01
(PID.TID 0000.0001) %MON dynstat_uvel_mean            =   3.8467175282097E-06
(PID.TID 0000.0001) %MON dynstat_uvel_sd              =   5.4870845860154E-03
(PID.TID 0000.0001) %MON dynstat_uvel_del2            =   8.1865727685764E-05
(PID.TID 0000.0001) %MON dynstat_vvel_max             =   4.4142168179077E-01
(PID.TID 0000.0001) %MON dynstat_vvel_min             =  -5.9085699686347E-01
(PID.TID 0000.0001) %MON dynstat_vvel_mean            =   9.3999428108797E-04
(PID.TID 0000.0001) %MON dynstat_vvel_sd              =   5.5044964148369E-03
(PID.TID 0000.0001) %MON dynstat_vvel_del2            =   8.6285518480325E-05
(PID.TID 0000.0001) %MON dynstat_wvel_max             =   1.2972998922918E-04
(PID.TID 0000.0001) %MON dynstat_wvel_min             =  -2.2312501068095E-04
(PID.TID 0000.0001) %MON dynstat_wvel_mean            =  -2.7834794920600E-07
(PID.TID 0000.0001) %MON dynstat_wvel_sd              =   6.9292379509263E-06
(PID.TID 0000.0001) %MON dynstat_wvel_del2            =   7.8399612750551E-08
(PID.TID 0000.0001) %MON dynstat_theta_max            =   2.1759769394449E+01
(PID.TID 0000.0001) %MON dynstat_theta_min            =   1.6106284665355E+01
(PID.TID 0000.0001) %MON dynstat_theta_mean           =   1.9997922353095E+01
(PID.TID 0000.0001) %MON dynstat_theta_sd             =   2.5324842686516E-02
(PID.TID 0000.0001) %MON dynstat_theta_del2           =   3.6161944500241E-04
(PID.TID 0000.0001) %MON dynstat_salt_max             =   3.5078371498535E+01
(PID.TID 0000.0001) %MON dynstat_salt_min             =   2.9095680739904E+01
(PID.TID 0000.0001) %MON dynstat_salt_mean            =   3.4999615966045E+01
(PID.TID 0000.0001) %MON dynstat_salt_sd              =   2.8971353061861E-02
(PID.TID 0000.0001) %MON dynstat_salt_del2            =   7.6771040467994E-04
(PID.TID 0000.0001) %MON dynstat_sst_max              =   2.1759769394449E+01
(PID.TID 0000.0001) %MON dynstat_sst_min              =   1.6106284665355E+01
(PID.TID 0000.0001) %MON dynstat_sst_mean             =   2.0058131883065E+01
(PID.TID 0000.0001) %MON dynstat_sst_sd               =   1.8454346564493E-01
(PID.TID 0000.0001) %MON dynstat_sst_del2             =   4.2139501088841E-03
(PID.TID 0000.0001) %MON dynstat_sss_max              =   3.5078371498535E+01
(PID.TID 0000.0001) %MON dynstat_sss_min              =   2.9095680739904E+01
(PID.TID 0000.0001) %MON dynstat_sss_mean             =   3.4980625769564E+01
(PID.TID 0000.0001) %MON dynstat_sss_sd               =   2.4729223465407E-01
(PID.TID 0000.0001) %MON dynstat_sss_del2             =   9.6413480962551E-03
(PID.TID 0000.0001) %MON forcing_qnet_max             =   3.2301223144531E+03
(PID.TID 0000.0001) %MON forcing_qnet_min             =  -3.8389072265625E+03
(PID.TID 0000.0001) %MON forcing_qnet_mean            =  -2.3773900985994E+01
(PID.TID 0000.0001) %MON forcing_qnet_sd              =   4.8476471692823E+02
(PID.TID 0000.0001) %MON forcing_qnet_del2            =   6.5649125821697E+00
(PID.TID 0000.0001) %MON forcing_qsw_max              =   0.0000000000000E+00
(PID.TID 0000.0001) %MON forcing_qsw_min              =  -1.0713214270153E+02
(PID.TID 0000.0001) %MON forcing_qsw_mean             =  -1.6250714767796E+01
(PID.TID 0000.0001) %MON forcing_qsw_sd               =   2.8234686398430E+01
(PID.TID 0000.0001) %MON forcing_qsw_del2             =   1.2981850740673E-01
(PID.TID 0000.0001) %MON forcing_empmr_max            =   5.6580179370940E-03
(PID.TID 0000.0001) %MON forcing_empmr_min            =  -8.1329293549061E-02
(PID.TID 0000.0001) %MON forcing_empmr_mean           =  -3.8759017371421E-04
(PID.TID 0000.0001) %MON forcing_empmr_sd             =   3.6109337300439E-03
(PID.TID 0000.0001) %MON forcing_empmr_del2           =   1.4182277495209E-04
(PID.TID 0000.0001) %MON forcing_fu_max               =   5.9346224774930E-01
(PID.TID 0000.0001) %MON forcing_fu_min               =  -6.2715132185719E-01
(PID.TID 0000.0001) %MON forcing_fu_mean              =  -8.2043033086808E-04
(PID.TID 0000.0001) %MON forcing_fu_sd                =   8.7558226517522E-02
(PID.TID 0000.0001) %MON forcing_fu_del2              =   7.3598609000932E-04
(PID.TID 0000.0001) %MON forcing_fv_max               =   3.9802762457673E-01
(PID.TID 0000.0001) %MON forcing_fv_min               =  -4.0830982496232E-01
(PID.TID 0000.0001) %MON forcing_fv_mean              =  -7.0736259573149E-03
(PID.TID 0000.0001) %MON forcing_fv_sd                =   7.3479011620914E-02
(PID.TID 0000.0001) %MON forcing_fv_del2              =   6.1639556032592E-04
(PID.TID 0000.0001) %MON trAdv_CFL_u_max              =   2.0064379442787E-03
(PID.TID 0000.0001) %MON trAdv_CFL_v_max              =   1.7406960002987E-03
(PID.TID 0000.0001) %MON trAdv_CFL_w_max              =   2.2905436918887E-03
(PID.TID 0000.0001) %MON advcfl_uvel_max              =   2.0248227347735E-03
(PID.TID 0000.0001) %MON advcfl_vvel_max              =   1.7274922853178E-03
(PID.TID 0000.0001) %MON advcfl_wvel_max              =   2.8288449930108E-03
(PID.TID 0000.0001) %MON advcfl_W_hf_max              =   2.2905436918887E-03
(PID.TID 0000.0001) %MON pe_b_mean                    =   9.0806461613611E-06
(PID.TID 0000.0001) %MON ke_max                       =   2.1159003753389E-01
(PID.TID 0000.0001) %MON ke_mean                      =   2.8300039190016E-05
(PID.TID 0000.0001) %MON ke_vol                       =   1.3398165790151E+18
(PID.TID 0000.0001) %MON vort_r_min                   =  -4.0654108103318E-06
(PID.TID 0000.0001) %MON vort_r_max                   =   2.8815910736239E-06
(PID.TID 0000.0001) %MON vort_a_mean                  =  -2.0549865324846E-05
(PID.TID 0000.0001) %MON vort_a_sd                    =   7.5259484468061E-05
(PID.TID 0000.0001) %MON vort_p_mean                  =  -2.4783260079222E-05
(PID.TID 0000.0001) %MON vort_p_sd                    =   1.2810525830143E-04
(PID.TID 0000.0001) %MON surfExpan_theta_mean         =  -4.1381759409474E-08
(PID.TID 0000.0001) %MON surfExpan_salt_mean          =   8.6369055449603E-07
(PID.TID 0000.0001) // =======================================================
(PID.TID 0000.0001) // End MONITOR dynamic field statistics
(PID.TID 0000.0001) // =======================================================
(PID.TID 0000.0001) // =======================================================
(PID.TID 0000.0001) // Begin MONITOR SEAICE statistics
(PID.TID 0000.0001) // =======================================================
(PID.TID 0000.0001) %MON seaice_tsnumber              =                    66
(PID.TID 0000.0001) %MON seaice_time_sec              =   5.9400000000000E+04
(PID.TID 0000.0001) %MON seaice_uice_max              =   6.0103733675862E-01
(PID.TID 0000.0001) %MON seaice_uice_min              =  -5.7416156944583E-01
(PID.TID 0000.0001) %MON seaice_uice_mean             =  -4.3157755091815E-03
(PID.TID 0000.0001) %MON seaice_uice_sd               =   4.0094340616116E-02
(PID.TID 0000.0001) %MON seaice_uice_del2             =   9.0596438534314E-04
(PID.TID 0000.0001) %MON seaice_vice_max              =   5.2098388030462E-01
(PID.TID 0000.0001) %MON seaice_vice_min              =  -6.0280243200853E-01
(PID.TID 0000.0001) %MON seaice_vice_mean             =  -1.2058007350892E-02
(PID.TID 0000.0001) %MON seaice_vice_sd               =   3.8667525476455E-02
(PID.TID 0000.0001) %MON seaice_vice_del2             =   9.1840655641679E-04
(PID.TID 0000.0001) %MON seaice_area_max              =   9.8557635444587E-01
(PID.TID 0000.0001) %MON seaice_area_min              =   0.0000000000000E+00
(PID.TID 0000.0001) %MON seaice_area_mean             =   6.2619910000671E-02
(PID.TID 0000.0001) %MON seaice_area_sd               =   2.1948126512834E-01
(PID.TID 0000.0001) %MON seaice_area_del2             =   1.5100490746434E-03
(PID.TID 0000.0001) %MON seaice_heff_max              =   8.2655087466064E+00
(PID.TID 0000.0001) %MON seaice_heff_min              =   0.0000000000000E+00
(PID.TID 0000.0001) %MON seaice_heff_mean             =   1.9435586084789E-01
(PID.TID 0000.0001) %MON seaice_heff_sd               =   9.4503897108318E-01
(PID.TID 0000.0001) %MON seaice_heff_del2             =   6.1232278726216E-03
(PID.TID 0000.0001) %MON seaice_hsnow_max             =   1.9849658866147E+00
(PID.TID 0000.0001) %MON seaice_hsnow_min             =   0.0000000000000E+00
(PID.TID 0000.0001) %MON seaice_hsnow_mean            =   2.1585739841487E-02
(PID.TID 0000.0001) %MON seaice_hsnow_sd              =   1.1573636188439E-01
(PID.TID 0000.0001) %MON seaice_hsnow_del2            =   1.4210967903165E-03
(PID.TID 0000.0001) // =======================================================
(PID.TID 0000.0001) // End MONITOR SEAICE statistics
(PID.TID 0000.0001) // =======================================================
 SEAICE_LSR: Residual Initial ipass,Uice,Vice=    1  2.56115104E-03  2.28500538E-03
 SEAICE_LSR (ipass=   1) iters,dU,Resid=     6  2.97372989E-05  2.99498666E-05
 SEAICE_LSR (ipass=   1) iters,dV,Resid=     6  3.71054983E-06  1.21250544E-05
 SEAICE_LSR: Residual Initial ipass,Uice,Vice=    2  1.86073295E-03  1.73207594E-03
 SEAICE_LSR (ipass=   2) iters,dU,Resid=     4  7.63452798E-05  3.35486004E-05
 SEAICE_LSR (ipass=   2) iters,dV,Resid=     4  1.65637953E-05  1.91060484E-05
 cg2d: Sum(rhs),rhsMax =  -1.02589179458723E+02  3.31467146981578E+01
(PID.TID 0000.0001)      cg2d_init_res =   2.96945090278896E-01
(PID.TID 0000.0001)      cg2d_iters(min,last) =      -1      10
(PID.TID 0000.0001)      cg2d_last_res =   9.80774854237137E-08
(PID.TID 0000.0001) // =======================================================
(PID.TID 0000.0001) // Begin MONITOR dynamic field statistics
(PID.TID 0000.0001) // =======================================================
(PID.TID 0000.0001) %MON time_tsnumber                =                    67
(PID.TID 0000.0001) %MON time_secondsf                =   6.0300000000000E+04
(PID.TID 0000.0001) %MON dynstat_eta_max              =   1.4448281837689E+00
(PID.TID 0000.0001) %MON dynstat_eta_min              =  -1.4720955314698E+00
(PID.TID 0000.0001) %MON dynstat_eta_mean             =   3.9513292526005E-02
(PID.TID 0000.0001) %MON dynstat_eta_sd               =   7.3421069960696E-02
(PID.TID 0000.0001) %MON dynstat_eta_del2             =   1.2758503294479E-03
(PID.TID 0000.0001) %MON dynstat_uvel_max             =   5.8186420201416E-01
(PID.TID 0000.0001) %MON dynstat_uvel_min             =  -6.6848368792248E-01
(PID.TID 0000.0001) %MON dynstat_uvel_mean            =   7.7364270668094E-06
(PID.TID 0000.0001) %MON dynstat_uvel_sd              =   5.5043201480307E-03
(PID.TID 0000.0001) %MON dynstat_uvel_del2            =   8.0635651318219E-05
(PID.TID 0000.0001) %MON dynstat_vvel_max             =   3.7285940673781E-01
(PID.TID 0000.0001) %MON dynstat_vvel_min             =  -5.6944589719028E-01
(PID.TID 0000.0001) %MON dynstat_vvel_mean            =   9.2757284391506E-04
(PID.TID 0000.0001) %MON dynstat_vvel_sd              =   5.4397237188122E-03
(PID.TID 0000.0001) %MON dynstat_vvel_del2            =   8.3953935623751E-05
(PID.TID 0000.0001) %MON dynstat_wvel_max             =   1.3149384047187E-04
(PID.TID 0000.0001) %MON dynstat_wvel_min             =  -2.1835166311465E-04
(PID.TID 0000.0001) %MON dynstat_wvel_mean            =  -2.6653589710161E-07
(PID.TID 0000.0001) %MON dynstat_wvel_sd              =   6.8870243534194E-06
(PID.TID 0000.0001) %MON dynstat_wvel_del2            =   7.7951232278489E-08
(PID.TID 0000.0001) %MON dynstat_theta_max            =   2.1777394275197E+01
(PID.TID 0000.0001) %MON dynstat_theta_min            =   1.6100054293186E+01
(PID.TID 0000.0001) %MON dynstat_theta_mean           =   1.9997923838691E+01
(PID.TID 0000.0001) %MON dynstat_theta_sd             =   2.5449334007228E-02
(PID.TID 0000.0001) %MON dynstat_theta_del2           =   3.6287418423211E-04
(PID.TID 0000.0001) %MON dynstat_salt_max             =   3.5078361975521E+01
(PID.TID 0000.0001) %MON dynstat_salt_min             =   2.9057230842318E+01
(PID.TID 0000.0001) %MON dynstat_salt_mean            =   3.4999612947127E+01
(PID.TID 0000.0001) %MON dynstat_salt_sd              =   2.9165623772878E-02
(PID.TID 0000.0001) %MON dynstat_salt_del2            =   7.7258296271525E-04
(PID.TID 0000.0001) %MON dynstat_sst_max              =   2.1777394275197E+01
(PID.TID 0000.0001) %MON dynstat_sst_min              =   1.6100054293186E+01
(PID.TID 0000.0001) %MON dynstat_sst_mean             =   2.0058918091213E+01
(PID.TID 0000.0001) %MON dynstat_sst_sd               =   1.8550157983968E-01
(PID.TID 0000.0001) %MON dynstat_sst_del2             =   4.2304417530534E-03
(PID.TID 0000.0001) %MON dynstat_sss_max              =   3.5078361975521E+01
(PID.TID 0000.0001) %MON dynstat_sss_min              =   2.9057230842318E+01
(PID.TID 0000.0001) %MON dynstat_sss_mean             =   3.4980465597756E+01
(PID.TID 0000.0001) %MON dynstat_sss_sd               =   2.4895403119488E-01
(PID.TID 0000.0001) %MON dynstat_sss_del2             =   9.7025618376754E-03
(PID.TID 0000.0001) %MON forcing_qnet_max             =   3.1907985839844E+03
(PID.TID 0000.0001) %MON forcing_qnet_min             =  -3.7915097656250E+03
(PID.TID 0000.0001) %MON forcing_qnet_mean            =  -2.4171715540962E+01
(PID.TID 0000.0001) %MON forcing_qnet_sd              =   4.8302881225368E+02
(PID.TID 0000.0001) %MON forcing_qnet_del2            =   6.5051513361355E+00
(PID.TID 0000.0001) %MON forcing_qsw_max              =   0.0000000000000E+00
(PID.TID 0000.0001) %MON forcing_qsw_min              =  -1.0771040762285E+02
(PID.TID 0000.0001) %MON forcing_qsw_mean             =  -1.6369517549640E+01
(PID.TID 0000.0001) %MON forcing_qsw_sd               =   2.8406979876320E+01
(PID.TID 0000.0001) %MON forcing_qsw_del2             =   1.2992613774431E-01
(PID.TID 0000.0001) %MON forcing_empmr_max            =   5.5997627787292E-03
(PID.TID 0000.0001) %MON forcing_empmr_min            =  -8.0491885542870E-02
(PID.TID 0000.0001) %MON forcing_empmr_mean           =  -3.8577527490963E-04
(PID.TID 0000.0001) %MON forcing_empmr_sd             =   3.5744221487724E-03
(PID.TID 0000.0001) %MON forcing_empmr_del2           =   1.4036190505760E-04
(PID.TID 0000.0001) %MON forcing_fu_max               =   5.8903901194222E-01
(PID.TID 0000.0001) %MON forcing_fu_min               =  -6.2827938427399E-01
(PID.TID 0000.0001) %MON forcing_fu_mean              =  -7.2687524667904E-04
(PID.TID 0000.0001) %MON forcing_fu_sd                =   8.7395979553628E-02
(PID.TID 0000.0001) %MON forcing_fu_del2              =   7.3435088258319E-04
(PID.TID 0000.0001) %MON forcing_fv_max               =   3.9529285835045E-01
(PID.TID 0000.0001) %MON forcing_fv_min               =  -4.0530047963692E-01
(PID.TID 0000.0001) %MON forcing_fv_mean              =  -7.1258701357481E-03
(PID.TID 0000.0001) %MON forcing_fv_sd                =   7.3136489258846E-02
(PID.TID 0000.0001) %MON forcing_fv_del2              =   6.1344517327200E-04
(PID.TID 0000.0001) %MON trAdv_CFL_u_max              =   1.9625417545864E-03
(PID.TID 0000.0001) %MON trAdv_CFL_v_max              =   1.6798808600773E-03
(PID.TID 0000.0001) %MON trAdv_CFL_w_max              =   2.2407949783369E-03
(PID.TID 0000.0001) %MON advcfl_uvel_max              =   1.9426197166537E-03
(PID.TID 0000.0001) %MON advcfl_vvel_max              =   1.6648925197198E-03
(PID.TID 0000.0001) %MON advcfl_wvel_max              =   2.7997177580129E-03
(PID.TID 0000.0001) %MON advcfl_W_hf_max              =   2.2407949783369E-03
(PID.TID 0000.0001) %MON pe_b_mean                    =   9.2611886114891E-06
(PID.TID 0000.0001) %MON ke_max                       =   2.0789260411923E-01
(PID.TID 0000.0001) %MON ke_mean                      =   2.8047472574628E-05
(PID.TID 0000.0001) %MON ke_vol                       =   1.3398167016576E+18
(PID.TID 0000.0001) %MON vort_r_min                   =  -4.0044134605644E-06
(PID.TID 0000.0001) %MON vort_r_max                   =   2.7276906733488E-06
(PID.TID 0000.0001) %MON vort_a_mean                  =  -2.0549865324846E-05
(PID.TID 0000.0001) %MON vort_a_sd                    =   7.5259482699529E-05
(PID.TID 0000.0001) %MON vort_p_mean                  =  -2.4783257656384E-05
(PID.TID 0000.0001) %MON vort_p_sd                    =   1.2810526164971E-04
(PID.TID 0000.0001) %MON surfExpan_theta_mean         =  -7.0040537407198E-08
(PID.TID 0000.0001) %MON surfExpan_salt_mean          =   8.6367402655719E-07
(PID.TID 0000.0001) // =======================================================
(PID.TID 0000.0001) // End MONITOR dynamic field statistics
(PID.TID 0000.0001) // =======================================================
(PID.TID 0000.0001) // =======================================================
(PID.TID 0000.0001) // Begin MONITOR SEAICE statistics
(PID.TID 0000.0001) // =======================================================
(PID.TID 0000.0001) %MON seaice_tsnumber              =                    67
(PID.TID 0000.0001) %MON seaice_time_sec              =   6.0300000000000E+04
(PID.TID 0000.0001) %MON seaice_uice_max              =   5.8972547858485E-01
(PID.TID 0000.0001) %MON seaice_uice_min              =  -5.8281081426239E-01
(PID.TID 0000.0001) %MON seaice_uice_mean             =  -4.2532932955988E-03
(PID.TID 0000.0001) %MON seaice_uice_sd               =   4.0470059881523E-02
(PID.TID 0000.0001) %MON seaice_uice_del2             =   8.9925214932845E-04
(PID.TID 0000.0001) %MON seaice_vice_max              =   4.5586413925261E-01
(PID.TID 0000.0001) %MON seaice_vice_min              =  -5.8473960346614E-01
(PID.TID 0000.0001) %MON seaice_vice_mean             =  -1.2043428854122E-02
(PID.TID 0000.0001) %MON seaice_vice_sd               =   3.8204452458911E-02
(PID.TID 0000.0001) %MON seaice_vice_del2             =   8.9422056032148E-04
(PID.TID 0000.0001) %MON seaice_area_max              =   9.8522374577821E-01
(PID.TID 0000.0001) %MON seaice_area_min              =   0.0000000000000E+00
(PID.TID 0000.0001) %MON seaice_area_mean             =   6.2529392961340E-02
(PID.TID 0000.0001) %MON seaice_area_sd               =   2.1923750298387E-01
(PID.TID 0000.0001) %MON seaice_area_del2             =   1.5061955753921E-03
(PID.TID 0000.0001) %MON seaice_heff_max              =   8.2628996339545E+00
(PID.TID 0000.0001) %MON seaice_heff_min              =   0.0000000000000E+00
(PID.TID 0000.0001) %MON seaice_heff_mean             =   1.9418516431406E-01
(PID.TID 0000.0001) %MON seaice_heff_sd               =   9.4454956906623E-01
(PID.TID 0000.0001) %MON seaice_heff_del2             =   6.1216348556689E-03
(PID.TID 0000.0001) %MON seaice_hsnow_max             =   1.9842384400678E+00
(PID.TID 0000.0001) %MON seaice_hsnow_min             =   0.0000000000000E+00
(PID.TID 0000.0001) %MON seaice_hsnow_mean            =   2.1566031009100E-02
(PID.TID 0000.0001) %MON seaice_hsnow_sd              =   1.1567502622211E-01
(PID.TID 0000.0001) %MON seaice_hsnow_del2            =   1.4204899769609E-03
(PID.TID 0000.0001) // =======================================================
(PID.TID 0000.0001) // End MONITOR SEAICE statistics
(PID.TID 0000.0001) // =======================================================
 SEAICE_LSR: Residual Initial ipass,Uice,Vice=    1  2.43111567E-03  2.22968037E-03
 SEAICE_LSR (ipass=   1) iters,dU,Resid=     6  2.97998361E-05  2.13223328E-05
 SEAICE_LSR (ipass=   1) iters,dV,Resid=     6  3.31605489E-06  1.27933545E-05
 SEAICE_LSR: Residual Initial ipass,Uice,Vice=    2  1.75421476E-03  1.56799096E-03
 SEAICE_LSR (ipass=   2) iters,dU,Resid=     4  7.66393852E-05  2.55744946E-05
 SEAICE_LSR (ipass=   2) iters,dV,Resid=     4  1.30556158E-05  1.76519039E-05
 cg2d: Sum(rhs),rhsMax =  -9.96823572697231E+01  3.44018458148106E+01
(PID.TID 0000.0001)      cg2d_init_res =   2.74023624717612E-01
(PID.TID 0000.0001)      cg2d_iters(min,last) =      -1      11
(PID.TID 0000.0001)      cg2d_last_res =   2.71734566129279E-08
(PID.TID 0000.0001) // =======================================================
(PID.TID 0000.0001) // Begin MONITOR dynamic field statistics
(PID.TID 0000.0001) // =======================================================
(PID.TID 0000.0001) %MON time_tsnumber                =                    68
(PID.TID 0000.0001) %MON time_secondsf                =   6.1200000000000E+04
(PID.TID 0000.0001) %MON dynstat_eta_max              =   1.4993477760152E+00
(PID.TID 0000.0001) %MON dynstat_eta_min              =  -1.6565006935460E+00
(PID.TID 0000.0001) %MON dynstat_eta_mean             =   3.9847512711667E-02
(PID.TID 0000.0001) %MON dynstat_eta_sd               =   7.4333526654645E-02
(PID.TID 0000.0001) %MON dynstat_eta_del2             =   1.3363178973319E-03
(PID.TID 0000.0001) %MON dynstat_uvel_max             =   5.7264124237494E-01
(PID.TID 0000.0001) %MON dynstat_uvel_min             =  -6.6765034833479E-01
(PID.TID 0000.0001) %MON dynstat_uvel_mean            =   9.8062601786527E-06
(PID.TID 0000.0001) %MON dynstat_uvel_sd              =   5.5195332652514E-03
(PID.TID 0000.0001) %MON dynstat_uvel_del2            =   7.9344322133986E-05
(PID.TID 0000.0001) %MON dynstat_vvel_max             =   3.0876682074441E-01
(PID.TID 0000.0001) %MON dynstat_vvel_min             =  -5.4482210894905E-01
(PID.TID 0000.0001) %MON dynstat_vvel_mean            =   9.1201082020645E-04
(PID.TID 0000.0001) %MON dynstat_vvel_sd              =   5.3798558965111E-03
(PID.TID 0000.0001) %MON dynstat_vvel_del2            =   8.1494841344534E-05
(PID.TID 0000.0001) %MON dynstat_wvel_max             =   1.3479790931701E-04
(PID.TID 0000.0001) %MON dynstat_wvel_min             =  -2.1331542051057E-04
(PID.TID 0000.0001) %MON dynstat_wvel_mean            =  -2.5551927024638E-07
(PID.TID 0000.0001) %MON dynstat_wvel_sd              =   6.8474241390634E-06
(PID.TID 0000.0001) %MON dynstat_wvel_del2            =   7.7574610060536E-08
(PID.TID 0000.0001) %MON dynstat_theta_max            =   2.1794816994934E+01
(PID.TID 0000.0001) %MON dynstat_theta_min            =   1.6094207173567E+01
(PID.TID 0000.0001) %MON dynstat_theta_mean           =   1.9997925312111E+01
(PID.TID 0000.0001) %MON dynstat_theta_sd             =   2.5573347891355E-02
(PID.TID 0000.0001) %MON dynstat_theta_del2           =   3.6422688140942E-04
(PID.TID 0000.0001) %MON dynstat_salt_max             =   3.5078352652224E+01
(PID.TID 0000.0001) %MON dynstat_salt_min             =   2.9019594290468E+01
(PID.TID 0000.0001) %MON dynstat_salt_mean            =   3.4999609949341E+01
(PID.TID 0000.0001) %MON dynstat_salt_sd              =   2.9355965492548E-02
(PID.TID 0000.0001) %MON dynstat_salt_del2            =   7.7734618032893E-04
(PID.TID 0000.0001) %MON dynstat_sst_max              =   2.1794816994934E+01
(PID.TID 0000.0001) %MON dynstat_sst_min              =   1.6094207173567E+01
(PID.TID 0000.0001) %MON dynstat_sst_mean             =   2.0059707715457E+01
(PID.TID 0000.0001) %MON dynstat_sst_sd               =   1.8644489864303E-01
(PID.TID 0000.0001) %MON dynstat_sst_del2             =   4.2492833325588E-03
(PID.TID 0000.0001) %MON dynstat_sss_max              =   3.5078352652224E+01
(PID.TID 0000.0001) %MON dynstat_sss_min              =   2.9019594290468E+01
(PID.TID 0000.0001) %MON dynstat_sss_mean             =   3.4980309597827E+01
(PID.TID 0000.0001) %MON dynstat_sss_sd               =   2.5058275265844E-01
(PID.TID 0000.0001) %MON dynstat_sss_del2             =   9.7624082854379E-03
(PID.TID 0000.0001) %MON forcing_qnet_max             =   3.1539472656250E+03
(PID.TID 0000.0001) %MON forcing_qnet_min             =  -3.7446958007812E+03
(PID.TID 0000.0001) %MON forcing_qnet_mean            =  -2.3964001902710E+01
(PID.TID 0000.0001) %MON forcing_qnet_sd              =   4.8119854153358E+02
(PID.TID 0000.0001) %MON forcing_qnet_del2            =   6.4279597488077E+00
(PID.TID 0000.0001) %MON forcing_qsw_max              =   0.0000000000000E+00
(PID.TID 0000.0001) %MON forcing_qsw_min              =  -1.0818462827344E+02
(PID.TID 0000.0001) %MON forcing_qsw_mean             =  -1.6459769305831E+01
(PID.TID 0000.0001) %MON forcing_qsw_sd               =   2.8504648097801E+01
(PID.TID 0000.0001) %MON forcing_qsw_del2             =   1.2991958491419E-01
(PID.TID 0000.0001) %MON forcing_empmr_max            =   5.5420980788767E-03
(PID.TID 0000.0001) %MON forcing_empmr_min            =  -7.9662866890430E-02
(PID.TID 0000.0001) %MON forcing_empmr_mean           =  -3.8435321351108E-04
(PID.TID 0000.0001) %MON forcing_empmr_sd             =   3.5384249289763E-03
(PID.TID 0000.0001) %MON forcing_empmr_del2           =   1.3891630366470E-04
(PID.TID 0000.0001) %MON forcing_fu_max               =   5.7818927710710E-01
(PID.TID 0000.0001) %MON forcing_fu_min               =  -6.3186948845740E-01
(PID.TID 0000.0001) %MON forcing_fu_mean              =  -6.5267211642017E-04
(PID.TID 0000.0001) %MON forcing_fu_sd                =   8.7133769467132E-02
(PID.TID 0000.0001) %MON forcing_fu_del2              =   7.3224226101475E-04
(PID.TID 0000.0001) %MON forcing_fv_max               =   3.9166798145335E-01
(PID.TID 0000.0001) %MON forcing_fv_min               =  -4.0233959267467E-01
(PID.TID 0000.0001) %MON forcing_fv_mean              =  -7.1635813126881E-03
(PID.TID 0000.0001) %MON forcing_fv_sd                =   7.2809730761737E-02
(PID.TID 0000.0001) %MON forcing_fv_del2              =   6.1063194310218E-04
(PID.TID 0000.0001) %MON trAdv_CFL_u_max              =   1.9620673569740E-03
(PID.TID 0000.0001) %MON trAdv_CFL_v_max              =   1.6092669778979E-03
(PID.TID 0000.0001) %MON trAdv_CFL_w_max              =   2.1884162291637E-03
(PID.TID 0000.0001) %MON advcfl_uvel_max              =   1.9401980241831E-03
(PID.TID 0000.0001) %MON advcfl_vvel_max              =   1.5928997965265E-03
(PID.TID 0000.0001) %MON advcfl_wvel_max              =   2.7708823266237E-03
(PID.TID 0000.0001) %MON advcfl_W_hf_max              =   2.1884162291637E-03
(PID.TID 0000.0001) %MON pe_b_mean                    =   9.4761250236199E-06
(PID.TID 0000.0001) %MON ke_max                       =   2.0223835171191E-01
(PID.TID 0000.0001) %MON ke_mean                      =   2.7810764494406E-05
(PID.TID 0000.0001) %MON ke_vol                       =   1.3398168237259E+18
(PID.TID 0000.0001) %MON vort_r_min                   =  -3.9223191420297E-06
(PID.TID 0000.0001) %MON vort_r_max                   =   2.5504054347815E-06
(PID.TID 0000.0001) %MON vort_a_mean                  =  -2.0549865324846E-05
(PID.TID 0000.0001) %MON vort_a_sd                    =   7.5259480188176E-05
(PID.TID 0000.0001) %MON vort_p_mean                  =  -2.4783255259804E-05
(PID.TID 0000.0001) %MON vort_p_sd                    =   1.2810526030283E-04
(PID.TID 0000.0001) %MON surfExpan_theta_mean         =  -9.9037574982203E-08
(PID.TID 0000.0001) %MON surfExpan_salt_mean          =   8.6327284231683E-07
(PID.TID 0000.0001) // =======================================================
(PID.TID 0000.0001) // End MONITOR dynamic field statistics
(PID.TID 0000.0001) // =======================================================
(PID.TID 0000.0001) // =======================================================
(PID.TID 0000.0001) // Begin MONITOR SEAICE statistics
(PID.TID 0000.0001) // =======================================================
(PID.TID 0000.0001) %MON seaice_tsnumber              =                    68
(PID.TID 0000.0001) %MON seaice_time_sec              =   6.1200000000000E+04
(PID.TID 0000.0001) %MON seaice_uice_max              =   5.8834193720502E-01
(PID.TID 0000.0001) %MON seaice_uice_min              =  -5.8788084218106E-01
(PID.TID 0000.0001) %MON seaice_uice_mean             =  -4.2032834228231E-03
(PID.TID 0000.0001) %MON seaice_uice_sd               =   4.0820262649680E-02
(PID.TID 0000.0001) %MON seaice_uice_del2             =   8.8991770988051E-04
(PID.TID 0000.0001) %MON seaice_vice_max              =   3.8661826657950E-01
(PID.TID 0000.0001) %MON seaice_vice_min              =  -5.6326583420167E-01
(PID.TID 0000.0001) %MON seaice_vice_mean             =  -1.2012443780631E-02
(PID.TID 0000.0001) %MON seaice_vice_sd               =   3.7766530989980E-02
(PID.TID 0000.0001) %MON seaice_vice_del2             =   8.6774255738779E-04
(PID.TID 0000.0001) %MON seaice_area_max              =   9.8486883979598E-01
(PID.TID 0000.0001) %MON seaice_area_min              =   0.0000000000000E+00
(PID.TID 0000.0001) %MON seaice_area_mean             =   6.2438996232408E-02
(PID.TID 0000.0001) %MON seaice_area_sd               =   2.1899410889480E-01
(PID.TID 0000.0001) %MON seaice_area_del2             =   1.5023681993153E-03
(PID.TID 0000.0001) %MON seaice_heff_max              =   8.2602901946133E+00
(PID.TID 0000.0001) %MON seaice_heff_min              =   0.0000000000000E+00
(PID.TID 0000.0001) %MON seaice_heff_mean             =   1.9401463422404E-01
(PID.TID 0000.0001) %MON seaice_heff_sd               =   9.4406021451828E-01
(PID.TID 0000.0001) %MON seaice_heff_del2             =   6.1200462272532E-03
(PID.TID 0000.0001) %MON seaice_hsnow_max             =   1.9835259454208E+00
(PID.TID 0000.0001) %MON seaice_hsnow_min             =   0.0000000000000E+00
(PID.TID 0000.0001) %MON seaice_hsnow_mean            =   2.1546328808650E-02
(PID.TID 0000.0001) %MON seaice_hsnow_sd              =   1.1561387648060E-01
(PID.TID 0000.0001) %MON seaice_hsnow_del2            =   1.4198962958050E-03
(PID.TID 0000.0001) // =======================================================
(PID.TID 0000.0001) // End MONITOR SEAICE statistics
(PID.TID 0000.0001) // =======================================================
 Compute Stats, Diag. #    211  SIarea    vol(   0 ): 1.456E+15  Parms: SM      M1      
 Compute Stats, Diag. #    214  SIheff    vol(   0 ): 1.456E+15  Parms: SM      M1      
 Compute Stats, Diag. #    216  SIhsnow   vol(   0 ): 1.456E+15  Parms: SM      M1      
 Compute Stats, Diag. #     83  sIceLoad  vol(   0 ): 1.456E+15  Parms: SM      U1      
 Compute Stats, Diag. #    220  SIuice    vol(   0 ): 1.383E+15  Parms: UU      M1      
 Compute Stats, Diag. #    221  SIvice    vol(   0 ): 1.391E+15  Parms: VV      M1      
 Compute Stats, Diag. #    222  SItaux    vol(   0 ): 1.383E+15  Parms: UU      U1      
 Compute Stats, Diag. #    223  SItauy    vol(   0 ): 1.391E+15  Parms: VV      U1      
 Compute Stats, Diag. #    282  SIareaN   vol(   0 ): 7.278E+15  Parms: SM      MX      
 Compute Stats, Diag. #    281  SIheffN   vol(   0 ): 7.278E+15  Parms: SM      MX      
 Compute Stats, Diag. #    283  SIhsnowN  vol(   0 ): 7.278E+15  Parms: SM      MX      
 Compute Stats, Diag. #    287  SIqSnow   vol(   0 ): 7.278E+15  Parms: SM      MX      
 Compute Stats, Diag. #    286  SIqIce    vol(   0 ): 2.911E+16  Parms: SM      MX      
 Compute Stats, Diag. #    288  SImeltPd  vol(   0 ): 7.278E+15  Parms: SM      MX      
 Compute Stats, Diag. #    285  SItIces   vol(   0 ): 7.278E+15  Parms: SM      MX      
 Compute Stats, Diag. #    289  SIiceAge  vol(   0 ): 7.278E+15  Parms: SM      MX      
 Compute Stats, Diag. #    290  SI_dArea  vol(   0 ): 7.278E+15  Parms: SM      MX      
 Compute Stats, Diag. #    291  SI_dHeff  vol(   0 ): 7.278E+15  Parms: SM      MX      
 Compute Stats, Diag. #    292  SI_dHsnw  vol(   0 ): 7.278E+15  Parms: SM      MX      
 Compute Stats, Diag. #    295  SI_dQSnw  vol(   0 ): 7.278E+15  Parms: SM      MX      
 Compute Stats, Diag. #    294  SI_dQIce  vol(   0 ): 2.911E+16  Parms: SM      MX      
 SEAICE_LSR: Residual Initial ipass,Uice,Vice=    1  2.44729144E-03  2.15772545E-03
 SEAICE_LSR (ipass=   1) iters,dU,Resid=     6  2.95177562E-05  1.81593910E-05
 SEAICE_LSR (ipass=   1) iters,dV,Resid=     6  3.11166032E-06  1.26958048E-05
 SEAICE_LSR: Residual Initial ipass,Uice,Vice=    2  1.66783979E-03  1.45584197E-03
 SEAICE_LSR (ipass=   2) iters,dU,Resid=     4  7.65305147E-05  2.16218712E-05
 SEAICE_LSR (ipass=   2) iters,dV,Resid=     4  9.43333845E-06  1.55997097E-05
 cg2d: Sum(rhs),rhsMax =  -9.72336346361400E+01  3.55618470434509E+01
(PID.TID 0000.0001)      cg2d_init_res =   2.53276514236440E-01
(PID.TID 0000.0001)      cg2d_iters(min,last) =      -1      11
(PID.TID 0000.0001)      cg2d_last_res =   2.73880540574071E-08
(PID.TID 0000.0001) // =======================================================
(PID.TID 0000.0001) // Begin MONITOR dynamic field statistics
(PID.TID 0000.0001) // =======================================================
(PID.TID 0000.0001) %MON time_tsnumber                =                    69
(PID.TID 0000.0001) %MON time_secondsf                =   6.2100000000000E+04
(PID.TID 0000.0001) %MON dynstat_eta_max              =   1.5497188565469E+00
(PID.TID 0000.0001) %MON dynstat_eta_min              =  -1.8072309060625E+00
(PID.TID 0000.0001) %MON dynstat_eta_mean             =   4.0179266400892E-02
(PID.TID 0000.0001) %MON dynstat_eta_sd               =   7.5308800097348E-02
(PID.TID 0000.0001) %MON dynstat_eta_del2             =   1.3966893947748E-03
(PID.TID 0000.0001) %MON dynstat_uvel_max             =   5.5686918456498E-01
(PID.TID 0000.0001) %MON dynstat_uvel_min             =  -6.6338922438970E-01
(PID.TID 0000.0001) %MON dynstat_uvel_mean            =   1.0053867222675E-05
(PID.TID 0000.0001) %MON dynstat_uvel_sd              =   5.5330650216464E-03
(PID.TID 0000.0001) %MON dynstat_uvel_del2            =   7.8025582146039E-05
(PID.TID 0000.0001) %MON dynstat_vvel_max             =   2.9525841927048E-01
(PID.TID 0000.0001) %MON dynstat_vvel_min             =  -5.1714930953203E-01
(PID.TID 0000.0001) %MON dynstat_vvel_mean            =   8.9361573342050E-04
(PID.TID 0000.0001) %MON dynstat_vvel_sd              =   5.3277310625014E-03
(PID.TID 0000.0001) %MON dynstat_vvel_del2            =   7.9051123445589E-05
(PID.TID 0000.0001) %MON dynstat_wvel_max             =   1.3777108000623E-04
(PID.TID 0000.0001) %MON dynstat_wvel_min             =  -2.0805625739652E-04
(PID.TID 0000.0001) %MON dynstat_wvel_mean            =  -2.4440355589617E-07
(PID.TID 0000.0001) %MON dynstat_wvel_sd              =   6.8100002563712E-06
(PID.TID 0000.0001) %MON dynstat_wvel_del2            =   7.7268136292923E-08
(PID.TID 0000.0001) %MON dynstat_theta_max            =   2.1812043303005E+01
(PID.TID 0000.0001) %MON dynstat_theta_min            =   1.6088815291275E+01
(PID.TID 0000.0001) %MON dynstat_theta_mean           =   1.9997926869661E+01
(PID.TID 0000.0001) %MON dynstat_theta_sd             =   2.5697295962805E-02
(PID.TID 0000.0001) %MON dynstat_theta_del2           =   3.6551314871058E-04
(PID.TID 0000.0001) %MON dynstat_salt_max             =   3.5078343373816E+01
(PID.TID 0000.0001) %MON dynstat_salt_min             =   2.8982752479607E+01
(PID.TID 0000.0001) %MON dynstat_salt_mean            =   3.4999606982399E+01
(PID.TID 0000.0001) %MON dynstat_salt_sd              =   2.9542517074682E-02
(PID.TID 0000.0001) %MON dynstat_salt_del2            =   7.8200126883064E-04
(PID.TID 0000.0001) %MON dynstat_sst_max              =   2.1812043303005E+01
(PID.TID 0000.0001) %MON dynstat_sst_min              =   1.6088815291275E+01
(PID.TID 0000.0001) %MON dynstat_sst_mean             =   2.0060492210600E+01
(PID.TID 0000.0001) %MON dynstat_sst_sd               =   1.8738476365938E-01
(PID.TID 0000.0001) %MON dynstat_sst_del2             =   4.2661740925603E-03
(PID.TID 0000.0001) %MON dynstat_sss_max              =   3.5078343373816E+01
(PID.TID 0000.0001) %MON dynstat_sss_min              =   2.8982752479607E+01
(PID.TID 0000.0001) %MON dynstat_sss_mean             =   3.4980153453748E+01
(PID.TID 0000.0001) %MON dynstat_sss_sd               =   2.5217944928894E-01
(PID.TID 0000.0001) %MON dynstat_sss_del2             =   9.8208923894034E-03
(PID.TID 0000.0001) %MON forcing_qnet_max             =   3.1175412597656E+03
(PID.TID 0000.0001) %MON forcing_qnet_min             =  -3.6995209960938E+03
(PID.TID 0000.0001) %MON forcing_qnet_mean            =  -2.5388295908562E+01
(PID.TID 0000.0001) %MON forcing_qnet_sd              =   4.7980719584779E+02
(PID.TID 0000.0001) %MON forcing_qnet_del2            =   6.3776324932254E+00
(PID.TID 0000.0001) %MON forcing_qsw_max              =   0.0000000000000E+00
(PID.TID 0000.0001) %MON forcing_qsw_min              =  -1.0888960549706E+02
(PID.TID 0000.0001) %MON forcing_qsw_mean             =  -1.6840867724032E+01
(PID.TID 0000.0001) %MON forcing_qsw_sd               =   2.8779681771777E+01
(PID.TID 0000.0001) %MON forcing_qsw_del2             =   1.3009264056293E-01
(PID.TID 0000.0001) %MON forcing_empmr_max            =   5.4850238375366E-03
(PID.TID 0000.0001) %MON forcing_empmr_min            =  -7.8841403126717E-02
(PID.TID 0000.0001) %MON forcing_empmr_mean           =  -3.8151674260830E-04
(PID.TID 0000.0001) %MON forcing_empmr_sd             =   3.5029011626653E-03
(PID.TID 0000.0001) %MON forcing_empmr_del2           =   1.3749046025608E-04
(PID.TID 0000.0001) %MON forcing_fu_max               =   5.7373793230305E-01
(PID.TID 0000.0001) %MON forcing_fu_min               =  -6.3073264895134E-01
(PID.TID 0000.0001) %MON forcing_fu_mean              =  -5.7809937547386E-04
(PID.TID 0000.0001) %MON forcing_fu_sd                =   8.6771350752697E-02
(PID.TID 0000.0001) %MON forcing_fu_del2              =   7.2937748779311E-04
(PID.TID 0000.0001) %MON forcing_fv_max               =   3.8955542690527E-01
(PID.TID 0000.0001) %MON forcing_fv_min               =  -3.9725115998382E-01
(PID.TID 0000.0001) %MON forcing_fv_mean              =  -7.1832413612149E-03
(PID.TID 0000.0001) %MON forcing_fv_sd                =   7.2493998409249E-02
(PID.TID 0000.0001) %MON forcing_fv_del2              =   6.0728109594834E-04
(PID.TID 0000.0001) %MON trAdv_CFL_u_max              =   1.9515318923991E-03
(PID.TID 0000.0001) %MON trAdv_CFL_v_max              =   1.5293101237268E-03
(PID.TID 0000.0001) %MON trAdv_CFL_w_max              =   2.1338100385157E-03
(PID.TID 0000.0001) %MON advcfl_uvel_max              =   1.9278151589908E-03
(PID.TID 0000.0001) %MON advcfl_vvel_max              =   1.5119926603500E-03
(PID.TID 0000.0001) %MON advcfl_wvel_max              =   2.7423096739728E-03
(PID.TID 0000.0001) %MON advcfl_W_hf_max              =   2.1338100385157E-03
(PID.TID 0000.0001) %MON pe_b_mean                    =   9.7059120523413E-06
(PID.TID 0000.0001) %MON ke_max                       =   1.9468613687220E-01
(PID.TID 0000.0001) %MON ke_mean                      =   2.7605152684204E-05
(PID.TID 0000.0001) %MON ke_vol                       =   1.3398169453442E+18
(PID.TID 0000.0001) %MON vort_r_min                   =  -3.8192752690753E-06
(PID.TID 0000.0001) %MON vort_r_max                   =   2.4056384255031E-06
(PID.TID 0000.0001) %MON vort_a_mean                  =  -2.0549865324846E-05
(PID.TID 0000.0001) %MON vort_a_sd                    =   7.5259477007979E-05
(PID.TID 0000.0001) %MON vort_p_mean                  =  -2.4783252881199E-05
(PID.TID 0000.0001) %MON vort_p_sd                    =   1.2810525428644E-04
(PID.TID 0000.0001) %MON surfExpan_theta_mean         =  -1.2792703809575E-07
(PID.TID 0000.0001) %MON surfExpan_salt_mean          =   8.6254356895923E-07
(PID.TID 0000.0001) // =======================================================
(PID.TID 0000.0001) // End MONITOR dynamic field statistics
(PID.TID 0000.0001) // =======================================================
(PID.TID 0000.0001) // =======================================================
(PID.TID 0000.0001) // Begin MONITOR SEAICE statistics
(PID.TID 0000.0001) // =======================================================
(PID.TID 0000.0001) %MON seaice_tsnumber              =                    69
(PID.TID 0000.0001) %MON seaice_time_sec              =   6.2100000000000E+04
(PID.TID 0000.0001) %MON seaice_uice_max              =   5.7991995960573E-01
(PID.TID 0000.0001) %MON seaice_uice_min              =  -5.8903597947709E-01
(PID.TID 0000.0001) %MON seaice_uice_mean             =  -4.1720637733742E-03
(PID.TID 0000.0001) %MON seaice_uice_sd               =   4.1154008374495E-02
(PID.TID 0000.0001) %MON seaice_uice_del2             =   8.7836021463570E-04
(PID.TID 0000.0001) %MON seaice_vice_max              =   3.1450422079209E-01
(PID.TID 0000.0001) %MON seaice_vice_min              =  -5.3851871764748E-01
(PID.TID 0000.0001) %MON seaice_vice_mean             =  -1.1965648135510E-02
(PID.TID 0000.0001) %MON seaice_vice_sd               =   3.7387261069391E-02
(PID.TID 0000.0001) %MON seaice_vice_del2             =   8.4053955197642E-04
(PID.TID 0000.0001) %MON seaice_area_max              =   9.8451181310644E-01
(PID.TID 0000.0001) %MON seaice_area_min              =   0.0000000000000E+00
(PID.TID 0000.0001) %MON seaice_area_mean             =   6.2348767009911E-02
(PID.TID 0000.0001) %MON seaice_area_sd               =   2.1875107569333E-01
(PID.TID 0000.0001) %MON seaice_area_del2             =   1.4985646640800E-03
(PID.TID 0000.0001) %MON seaice_heff_max              =   8.2576809546356E+00
(PID.TID 0000.0001) %MON seaice_heff_min              =   0.0000000000000E+00
(PID.TID 0000.0001) %MON seaice_heff_mean             =   1.9384428671510E-01
(PID.TID 0000.0001) %MON seaice_heff_sd               =   9.4357093719159E-01
(PID.TID 0000.0001) %MON seaice_heff_del2             =   6.1184536582038E-03
(PID.TID 0000.0001) %MON seaice_hsnow_max             =   1.9828179742430E+00
(PID.TID 0000.0001) %MON seaice_hsnow_min             =   0.0000000000000E+00
(PID.TID 0000.0001) %MON seaice_hsnow_mean            =   2.1526659996687E-02
(PID.TID 0000.0001) %MON seaice_hsnow_sd              =   1.1555283220843E-01
(PID.TID 0000.0001) %MON seaice_hsnow_del2            =   1.4193458291743E-03
(PID.TID 0000.0001) // =======================================================
(PID.TID 0000.0001) // End MONITOR SEAICE statistics
(PID.TID 0000.0001) // =======================================================
 Computing Diagnostic #    211  SIarea       Counter:       1   Parms: SM      M1      
 Computing Diagnostic #    214  SIheff       Counter:       1   Parms: SM      M1      
 Computing Diagnostic #    216  SIhsnow      Counter:       1   Parms: SM      M1      
 Computing Diagnostic #     83  sIceLoad     Counter:       1   Parms: SM      U1      
 Computing Diagnostic #    220  SIuice       Counter:       1   Parms: UU      M1      
           Vector  Mate for  SIuice       Diagnostic #    221  SIvice   exists 
 Computing Diagnostic #    221  SIvice       Counter:       1   Parms: VV      M1      
           Vector  Mate for  SIvice       Diagnostic #    220  SIuice   exists 
 Computing Diagnostic #    222  SItaux       Counter:       1   Parms: UU      U1      
           Vector  Mate for  SItaux       Diagnostic #    223  SItauy   exists 
 Computing Diagnostic #    223  SItauy       Counter:       1   Parms: VV      U1      
           Vector  Mate for  SItauy       Diagnostic #    222  SItaux   exists 
 Computing Diagnostic #    284  CPLoWGHT     Counter:       1   Parms: SM      M1      
 Computing Diagnostic #    282  SIareaN      Counter:       1   Parms: SM      MX      
 Computing Diagnostic #    281  SIheffN      Counter:       1   Parms: SM      MX      
 Computing Diagnostic #    283  SIhsnowN     Counter:       1   Parms: SM      MX      
 Computing Diagnostic #    287  SIqSnow      Counter:       1   Parms: SM      MX      
 Computing Diagnostic #    288  SImeltPd     Counter:       1   Parms: SM      MX      
 Computing Diagnostic #    285  SItIces      Counter:       1   Parms: SM      MX      
 Computing Diagnostic #    289  SIiceAge     Counter:       1   Parms: SM      MX      
 Computing Diagnostic #    290  SI_dArea     Counter:       1   Parms: SM      MX      
 Computing Diagnostic #    291  SI_dHeff     Counter:       1   Parms: SM      MX      
 Computing Diagnostic #    292  SI_dHsnw     Counter:       1   Parms: SM      MX      
 Computing Diagnostic #    295  SI_dQSnw     Counter:       1   Parms: SM      MX      
 Computing Diagnostic #    286  SIqIce       Counter:       1   Parms: SM      MX      
 Computing Diagnostic #    294  SI_dQIce     Counter:       1   Parms: SM      MX      
 SEAICE_LSR: Residual Initial ipass,Uice,Vice=    1  2.46659195E-03  2.13063800E-03
 SEAICE_LSR (ipass=   1) iters,dU,Resid=     6  3.01639712E-05  1.48224226E-05
 SEAICE_LSR (ipass=   1) iters,dV,Resid=     6  3.21913479E-06  1.30015547E-05
 SEAICE_LSR: Residual Initial ipass,Uice,Vice=    2  1.59795500E-03  1.38310475E-03
 SEAICE_LSR (ipass=   2) iters,dU,Resid=     4  7.79998273E-05  1.85888265E-05
 SEAICE_LSR (ipass=   2) iters,dV,Resid=     4  7.66016976E-06  1.45476466E-05
 cg2d: Sum(rhs),rhsMax =  -9.52119369402894E+01  3.66156357401196E+01
(PID.TID 0000.0001)      cg2d_init_res =   2.34734467765121E-01
(PID.TID 0000.0001)      cg2d_iters(min,last) =      -1      11
(PID.TID 0000.0001)      cg2d_last_res =   2.65884348696633E-08
(PID.TID 0000.0001) // =======================================================
(PID.TID 0000.0001) // Begin MONITOR dynamic field statistics
(PID.TID 0000.0001) // =======================================================
(PID.TID 0000.0001) %MON time_tsnumber                =                    70
(PID.TID 0000.0001) %MON time_secondsf                =   6.3000000000000E+04
(PID.TID 0000.0001) %MON dynstat_eta_max              =   1.5954632614979E+00
(PID.TID 0000.0001) %MON dynstat_eta_min              =  -1.9234859029074E+00
(PID.TID 0000.0001) %MON dynstat_eta_mean             =   4.0509711711035E-02
(PID.TID 0000.0001) %MON dynstat_eta_sd               =   7.6255819229700E-02
(PID.TID 0000.0001) %MON dynstat_eta_del2             =   1.4523564157685E-03
(PID.TID 0000.0001) %MON dynstat_uvel_max             =   5.3495353784351E-01
(PID.TID 0000.0001) %MON dynstat_uvel_min             =  -6.5562706654549E-01
(PID.TID 0000.0001) %MON dynstat_uvel_mean            =   8.5229487898580E-06
(PID.TID 0000.0001) %MON dynstat_uvel_sd              =   5.5454666080955E-03
(PID.TID 0000.0001) %MON dynstat_uvel_del2            =   7.6714625881085E-05
(PID.TID 0000.0001) %MON dynstat_vvel_max             =   2.9668820272884E-01
(PID.TID 0000.0001) %MON dynstat_vvel_min             =  -4.8661643843434E-01
(PID.TID 0000.0001) %MON dynstat_vvel_mean            =   8.7271436048677E-04
(PID.TID 0000.0001) %MON dynstat_vvel_sd              =   5.2856856555556E-03
(PID.TID 0000.0001) %MON dynstat_vvel_del2            =   7.6766850002423E-05
(PID.TID 0000.0001) %MON dynstat_wvel_max             =   1.4042774936990E-04
(PID.TID 0000.0001) %MON dynstat_wvel_min             =  -2.0260990172035E-04
(PID.TID 0000.0001) %MON dynstat_wvel_mean            =  -2.3428680805024E-07
(PID.TID 0000.0001) %MON dynstat_wvel_sd              =   6.7742393063891E-06
(PID.TID 0000.0001) %MON dynstat_wvel_del2            =   7.7017083520154E-08
(PID.TID 0000.0001) %MON dynstat_theta_max            =   2.1829069500038E+01
(PID.TID 0000.0001) %MON dynstat_theta_min            =   1.6083942074583E+01
(PID.TID 0000.0001) %MON dynstat_theta_mean           =   1.9997928434623E+01
(PID.TID 0000.0001) %MON dynstat_theta_sd             =   2.5821030117107E-02
(PID.TID 0000.0001) %MON dynstat_theta_del2           =   3.6676329327541E-04
(PID.TID 0000.0001) %MON dynstat_salt_max             =   3.5078334767424E+01
(PID.TID 0000.0001) %MON dynstat_salt_min             =   2.8946687204048E+01
(PID.TID 0000.0001) %MON dynstat_salt_mean            =   3.4999604036418E+01
(PID.TID 0000.0001) %MON dynstat_salt_sd              =   2.9725389697674E-02
(PID.TID 0000.0001) %MON dynstat_salt_del2            =   7.8655110361014E-04
(PID.TID 0000.0001) %MON dynstat_sst_max              =   2.1829069500038E+01
(PID.TID 0000.0001) %MON dynstat_sst_min              =   1.6083942074583E+01
(PID.TID 0000.0001) %MON dynstat_sst_mean             =   2.0061274096881E+01
(PID.TID 0000.0001) %MON dynstat_sst_sd               =   1.8831671008380E-01
(PID.TID 0000.0001) %MON dynstat_sst_del2             =   4.2823155395679E-03
(PID.TID 0000.0001) %MON dynstat_sss_max              =   3.5078334767424E+01
(PID.TID 0000.0001) %MON dynstat_sss_min              =   2.8946687204048E+01
(PID.TID 0000.0001) %MON dynstat_sss_mean             =   3.4979999338416E+01
(PID.TID 0000.0001) %MON dynstat_sss_sd               =   2.5374507033199E-01
(PID.TID 0000.0001) %MON dynstat_sss_del2             =   9.8780497452337E-03
(PID.TID 0000.0001) %MON forcing_qnet_max             =   3.0805966796875E+03
(PID.TID 0000.0001) %MON forcing_qnet_min             =  -3.6538471679688E+03
(PID.TID 0000.0001) %MON forcing_qnet_mean            =  -2.5518360606040E+01
(PID.TID 0000.0001) %MON forcing_qnet_sd              =   4.7814691664608E+02
(PID.TID 0000.0001) %MON forcing_qnet_del2            =   6.3371037624262E+00
(PID.TID 0000.0001) %MON forcing_qsw_max              =   0.0000000000000E+00
(PID.TID 0000.0001) %MON forcing_qsw_min              =  -1.0938235830868E+02
(PID.TID 0000.0001) %MON forcing_qsw_mean             =  -1.7024231961952E+01
(PID.TID 0000.0001) %MON forcing_qsw_sd               =   2.8820827782874E+01
(PID.TID 0000.0001) %MON forcing_qsw_del2             =   1.3112314038097E-01
(PID.TID 0000.0001) %MON forcing_empmr_max            =   5.4286387749016E-03
(PID.TID 0000.0001) %MON forcing_empmr_min            =  -7.8029170632362E-02
(PID.TID 0000.0001) %MON forcing_empmr_mean           =  -3.8001210666523E-04
(PID.TID 0000.0001) %MON forcing_empmr_sd             =   3.4678010651245E-03
(PID.TID 0000.0001) %MON forcing_empmr_del2           =   1.3608474038190E-04
(PID.TID 0000.0001) %MON forcing_fu_max               =   5.7906554097651E-01
(PID.TID 0000.0001) %MON forcing_fu_min               =  -6.3140997927776E-01
(PID.TID 0000.0001) %MON forcing_fu_mean              =  -4.8062686639522E-04
(PID.TID 0000.0001) %MON forcing_fu_sd                =   8.6523012745245E-02
(PID.TID 0000.0001) %MON forcing_fu_del2              =   7.2725755271603E-04
(PID.TID 0000.0001) %MON forcing_fv_max               =   3.8669057261469E-01
(PID.TID 0000.0001) %MON forcing_fv_min               =  -3.9224230926466E-01
(PID.TID 0000.0001) %MON forcing_fv_mean              =  -7.1707172985096E-03
(PID.TID 0000.0001) %MON forcing_fv_sd                =   7.2182524858546E-02
(PID.TID 0000.0001) %MON forcing_fv_del2              =   6.0411427226574E-04
(PID.TID 0000.0001) %MON trAdv_CFL_u_max              =   1.9306620622836E-03
(PID.TID 0000.0001) %MON trAdv_CFL_v_max              =   1.4405521755403E-03
(PID.TID 0000.0001) %MON trAdv_CFL_w_max              =   2.0773348253106E-03
(PID.TID 0000.0001) %MON advcfl_uvel_max              =   1.9052582572378E-03
(PID.TID 0000.0001) %MON advcfl_vvel_max              =   1.4227235147702E-03
(PID.TID 0000.0001) %MON advcfl_wvel_max              =   2.7140581089517E-03
(PID.TID 0000.0001) %MON advcfl_W_hf_max              =   2.0773348253106E-03
(PID.TID 0000.0001) %MON pe_b_mean                    =   9.9326437432142E-06
(PID.TID 0000.0001) %MON ke_max                       =   1.8536411491888E-01
(PID.TID 0000.0001) %MON ke_mean                      =   2.7444123513598E-05
(PID.TID 0000.0001) %MON ke_vol                       =   1.3398170660649E+18
(PID.TID 0000.0001) %MON vort_r_min                   =  -3.6956534068649E-06
(PID.TID 0000.0001) %MON vort_r_max                   =   2.3917142289593E-06
(PID.TID 0000.0001) %MON vort_a_mean                  =  -2.0549865324846E-05
(PID.TID 0000.0001) %MON vort_a_sd                    =   7.5259473248150E-05
(PID.TID 0000.0001) %MON vort_p_mean                  =  -2.4783250525106E-05
(PID.TID 0000.0001) %MON vort_p_sd                    =   1.2810524403321E-04
(PID.TID 0000.0001) %MON surfExpan_theta_mean         =  -1.5624264495771E-07
(PID.TID 0000.0001) %MON surfExpan_salt_mean          =   8.6149173159352E-07
(PID.TID 0000.0001) // =======================================================
(PID.TID 0000.0001) // End MONITOR dynamic field statistics
(PID.TID 0000.0001) // =======================================================
(PID.TID 0000.0001) // =======================================================
(PID.TID 0000.0001) // Begin MONITOR SEAICE statistics
(PID.TID 0000.0001) // =======================================================
(PID.TID 0000.0001) %MON seaice_tsnumber              =                    70
(PID.TID 0000.0001) %MON seaice_time_sec              =   6.3000000000000E+04
(PID.TID 0000.0001) %MON seaice_uice_max              =   5.6478498484499E-01
(PID.TID 0000.0001) %MON seaice_uice_min              =  -5.8618660631776E-01
(PID.TID 0000.0001) %MON seaice_uice_mean             =  -4.1440107086099E-03
(PID.TID 0000.0001) %MON seaice_uice_sd               =   4.1487552338336E-02
(PID.TID 0000.0001) %MON seaice_uice_del2             =   8.6558893687936E-04
(PID.TID 0000.0001) %MON seaice_vice_max              =   2.9401003472223E-01
(PID.TID 0000.0001) %MON seaice_vice_min              =  -5.1066431243680E-01
(PID.TID 0000.0001) %MON seaice_vice_mean             =  -1.1894812784828E-02
(PID.TID 0000.0001) %MON seaice_vice_sd               =   3.7094313583041E-02
(PID.TID 0000.0001) %MON seaice_vice_del2             =   8.1430801363852E-04
(PID.TID 0000.0001) %MON seaice_area_max              =   9.8415266916238E-01
(PID.TID 0000.0001) %MON seaice_area_min              =   0.0000000000000E+00
(PID.TID 0000.0001) %MON seaice_area_mean             =   6.2258652652493E-02
(PID.TID 0000.0001) %MON seaice_area_sd               =   2.1850838740847E-01
(PID.TID 0000.0001) %MON seaice_area_del2             =   1.4947824659483E-03
(PID.TID 0000.0001) %MON seaice_heff_max              =   8.2550714248217E+00
(PID.TID 0000.0001) %MON seaice_heff_min              =   0.0000000000000E+00
(PID.TID 0000.0001) %MON seaice_heff_mean             =   1.9367407195564E-01
(PID.TID 0000.0001) %MON seaice_heff_sd               =   9.4308171910664E-01
(PID.TID 0000.0001) %MON seaice_heff_del2             =   6.1168688403009E-03
(PID.TID 0000.0001) %MON seaice_hsnow_max             =   1.9820882069553E+00
(PID.TID 0000.0001) %MON seaice_hsnow_min             =   0.0000000000000E+00
(PID.TID 0000.0001) %MON seaice_hsnow_mean            =   2.1506977572291E-02
(PID.TID 0000.0001) %MON seaice_hsnow_sd              =   1.1549160531133E-01
(PID.TID 0000.0001) %MON seaice_hsnow_del2            =   1.4187930735617E-03
(PID.TID 0000.0001) // =======================================================
(PID.TID 0000.0001) // End MONITOR SEAICE statistics
(PID.TID 0000.0001) // =======================================================
 SEAICE_LSR: Residual Initial ipass,Uice,Vice=    1  2.42196767E-03  2.07298020E-03
 SEAICE_LSR (ipass=   1) iters,dU,Resid=     6  2.85498944E-05  1.14401016E-05
 SEAICE_LSR (ipass=   1) iters,dV,Resid=     6  3.33433197E-06  1.33863729E-05
 SEAICE_LSR: Residual Initial ipass,Uice,Vice=    2  1.51628764E-03  1.32589387E-03
 SEAICE_LSR (ipass=   2) iters,dU,Resid=     4  7.47095166E-05  1.47852052E-05
 SEAICE_LSR (ipass=   2) iters,dV,Resid=     4  7.28767486E-06  1.42025166E-05
 cg2d: Sum(rhs),rhsMax =  -9.35905169415282E+01  3.75524569331875E+01
(PID.TID 0000.0001)      cg2d_init_res =   2.18523105452454E-01
(PID.TID 0000.0001)      cg2d_iters(min,last) =      -1      10
(PID.TID 0000.0001)      cg2d_last_res =   9.09869922942968E-08
(PID.TID 0000.0001) // =======================================================
(PID.TID 0000.0001) // Begin MONITOR dynamic field statistics
(PID.TID 0000.0001) // =======================================================
(PID.TID 0000.0001) %MON time_tsnumber                =                    71
(PID.TID 0000.0001) %MON time_secondsf                =   6.3900000000000E+04
(PID.TID 0000.0001) %MON dynstat_eta_max              =   1.6361172235729E+00
(PID.TID 0000.0001) %MON dynstat_eta_min              =  -2.0050271948554E+00
(PID.TID 0000.0001) %MON dynstat_eta_mean             =   4.0838649889246E-02
(PID.TID 0000.0001) %MON dynstat_eta_sd               =   7.7097193756634E-02
(PID.TID 0000.0001) %MON dynstat_eta_del2             =   1.4998078855157E-03
(PID.TID 0000.0001) %MON dynstat_uvel_max             =   5.0737227422837E-01
(PID.TID 0000.0001) %MON dynstat_uvel_min             =  -6.4433699511045E-01
(PID.TID 0000.0001) %MON dynstat_uvel_mean            =   5.2736296004227E-06
(PID.TID 0000.0001) %MON dynstat_uvel_sd              =   5.5569482250343E-03
(PID.TID 0000.0001) %MON dynstat_uvel_del2            =   7.5445985278600E-05
(PID.TID 0000.0001) %MON dynstat_vvel_max             =   2.9280034715457E-01
(PID.TID 0000.0001) %MON dynstat_vvel_min             =  -4.5343707189510E-01
(PID.TID 0000.0001) %MON dynstat_vvel_mean            =   8.4964171108140E-04
(PID.TID 0000.0001) %MON dynstat_vvel_sd              =   5.2557242135865E-03
(PID.TID 0000.0001) %MON dynstat_vvel_del2            =   7.4775393421292E-05
(PID.TID 0000.0001) %MON dynstat_wvel_max             =   1.4290081990473E-04
(PID.TID 0000.0001) %MON dynstat_wvel_min             =  -1.9701052098648E-04
(PID.TID 0000.0001) %MON dynstat_wvel_mean            =  -2.2436972414694E-07
(PID.TID 0000.0001) %MON dynstat_wvel_sd              =   6.7424665358073E-06
(PID.TID 0000.0001) %MON dynstat_wvel_del2            =   7.6842069403483E-08
(PID.TID 0000.0001) %MON dynstat_theta_max            =   2.1845896386682E+01
(PID.TID 0000.0001) %MON dynstat_theta_min            =   1.6079620571867E+01
(PID.TID 0000.0001) %MON dynstat_theta_mean           =   1.9997929996900E+01
(PID.TID 0000.0001) %MON dynstat_theta_sd             =   2.5944078483441E-02
(PID.TID 0000.0001) %MON dynstat_theta_del2           =   3.6796080905373E-04
(PID.TID 0000.0001) %MON dynstat_salt_max             =   3.5078327381271E+01
(PID.TID 0000.0001) %MON dynstat_salt_min             =   2.8911380333658E+01
(PID.TID 0000.0001) %MON dynstat_salt_mean            =   3.4999601116416E+01
(PID.TID 0000.0001) %MON dynstat_salt_sd              =   2.9904599672316E-02
(PID.TID 0000.0001) %MON dynstat_salt_del2            =   7.9099716280390E-04
(PID.TID 0000.0001) %MON dynstat_sst_max              =   2.1845896386682E+01
(PID.TID 0000.0001) %MON dynstat_sst_min              =   1.6079620571867E+01
(PID.TID 0000.0001) %MON dynstat_sst_mean             =   2.0062034729805E+01
(PID.TID 0000.0001) %MON dynstat_sst_sd               =   1.8924064910768E-01
(PID.TID 0000.0001) %MON dynstat_sst_del2             =   4.2974884871004E-03
(PID.TID 0000.0001) %MON dynstat_sss_max              =   3.5078327381271E+01
(PID.TID 0000.0001) %MON dynstat_sss_min              =   2.8911380333658E+01
(PID.TID 0000.0001) %MON dynstat_sss_mean             =   3.4979840816576E+01
(PID.TID 0000.0001) %MON dynstat_sss_sd               =   2.5527910031556E-01
(PID.TID 0000.0001) %MON dynstat_sss_del2             =   9.9338981463846E-03
(PID.TID 0000.0001) %MON forcing_qnet_max             =   3.0450720214844E+03
(PID.TID 0000.0001) %MON forcing_qnet_min             =  -3.6087380371094E+03
(PID.TID 0000.0001) %MON forcing_qnet_mean            =  -2.5480514541045E+01
(PID.TID 0000.0001) %MON forcing_qnet_sd              =   4.7645466673928E+02
(PID.TID 0000.0001) %MON forcing_qnet_del2            =   6.3019588264292E+00
(PID.TID 0000.0001) %MON forcing_qsw_max              =   0.0000000000000E+00
(PID.TID 0000.0001) %MON forcing_qsw_min              =  -1.0943190370148E+02
(PID.TID 0000.0001) %MON forcing_qsw_mean             =  -1.7175249870128E+01
(PID.TID 0000.0001) %MON forcing_qsw_sd               =   2.8790213065331E+01
(PID.TID 0000.0001) %MON forcing_qsw_del2             =   1.3205551646446E-01
(PID.TID 0000.0001) %MON forcing_empmr_max            =   5.3727454505861E-03
(PID.TID 0000.0001) %MON forcing_empmr_min            =  -7.7225327491760E-02
(PID.TID 0000.0001) %MON forcing_empmr_mean           =  -3.7827890494228E-04
(PID.TID 0000.0001) %MON forcing_empmr_sd             =   3.4330288410636E-03
(PID.TID 0000.0001) %MON forcing_empmr_del2           =   1.3469142043337E-04
(PID.TID 0000.0001) %MON forcing_fu_max               =   5.7635840678872E-01
(PID.TID 0000.0001) %MON forcing_fu_min               =  -6.3227294637878E-01
(PID.TID 0000.0001) %MON forcing_fu_mean              =  -4.4737286829181E-04
(PID.TID 0000.0001) %MON forcing_fu_sd                =   8.6211540666971E-02
(PID.TID 0000.0001) %MON forcing_fu_del2              =   7.2487986078565E-04
(PID.TID 0000.0001) %MON forcing_fv_max               =   3.8624259707426E-01
(PID.TID 0000.0001) %MON forcing_fv_min               =  -3.8784450629583E-01
(PID.TID 0000.0001) %MON forcing_fv_mean              =  -7.1452718605892E-03
(PID.TID 0000.0001) %MON forcing_fv_sd                =   7.1912925436786E-02
(PID.TID 0000.0001) %MON forcing_fv_del2              =   6.0107282385687E-04
(PID.TID 0000.0001) %MON trAdv_CFL_u_max              =   1.8993205329668E-03
(PID.TID 0000.0001) %MON trAdv_CFL_v_max              =   1.3588720593690E-03
(PID.TID 0000.0001) %MON trAdv_CFL_w_max              =   2.0193403250351E-03
(PID.TID 0000.0001) %MON advcfl_uvel_max              =   1.8724492062940E-03
(PID.TID 0000.0001) %MON advcfl_vvel_max              =   1.4202745447275E-03
(PID.TID 0000.0001) %MON advcfl_wvel_max              =   2.6860983475395E-03
(PID.TID 0000.0001) %MON advcfl_W_hf_max              =   2.0193403250351E-03
(PID.TID 0000.0001) %MON pe_b_mean                    =   1.0140176176691E-05
(PID.TID 0000.0001) %MON ke_max                       =   1.7446904928484E-01
(PID.TID 0000.0001) %MON ke_mean                      =   2.7337722674632E-05
(PID.TID 0000.0001) %MON ke_vol                       =   1.3398171863096E+18
(PID.TID 0000.0001) %MON vort_r_min                   =  -3.5520549679225E-06
(PID.TID 0000.0001) %MON vort_r_max                   =   2.3761415542361E-06
(PID.TID 0000.0001) %MON vort_a_mean                  =  -2.0549865324846E-05
(PID.TID 0000.0001) %MON vort_a_sd                    =   7.5259468999593E-05
(PID.TID 0000.0001) %MON vort_p_mean                  =  -2.4783248180037E-05
(PID.TID 0000.0001) %MON vort_p_sd                    =   1.2810523005932E-04
(PID.TID 0000.0001) %MON surfExpan_theta_mean         =  -1.8363004471859E-07
(PID.TID 0000.0001) %MON surfExpan_salt_mean          =   8.6009748490458E-07
(PID.TID 0000.0001) // =======================================================
(PID.TID 0000.0001) // End MONITOR dynamic field statistics
(PID.TID 0000.0001) // =======================================================
(PID.TID 0000.0001) // =======================================================
(PID.TID 0000.0001) // Begin MONITOR SEAICE statistics
(PID.TID 0000.0001) // =======================================================
(PID.TID 0000.0001) %MON seaice_tsnumber              =                    71
(PID.TID 0000.0001) %MON seaice_time_sec              =   6.3900000000000E+04
(PID.TID 0000.0001) %MON seaice_uice_max              =   5.4334389214188E-01
(PID.TID 0000.0001) %MON seaice_uice_min              =  -5.7935241918559E-01
(PID.TID 0000.0001) %MON seaice_uice_mean             =  -4.1372200268809E-03
(PID.TID 0000.0001) %MON seaice_uice_sd               =   4.1790619147581E-02
(PID.TID 0000.0001) %MON seaice_uice_del2             =   8.5181140672304E-04
(PID.TID 0000.0001) %MON seaice_vice_max              =   2.9638912382009E-01
(PID.TID 0000.0001) %MON seaice_vice_min              =  -4.7989731035645E-01
(PID.TID 0000.0001) %MON seaice_vice_mean             =  -1.1810041745499E-02
(PID.TID 0000.0001) %MON seaice_vice_sd               =   3.6887724409815E-02
(PID.TID 0000.0001) %MON seaice_vice_del2             =   7.9046921832143E-04
(PID.TID 0000.0001) %MON seaice_area_max              =   9.8379162959076E-01
(PID.TID 0000.0001) %MON seaice_area_min              =   0.0000000000000E+00
(PID.TID 0000.0001) %MON seaice_area_mean             =   6.2168641436791E-02
(PID.TID 0000.0001) %MON seaice_area_sd               =   2.1826604229585E-01
(PID.TID 0000.0001) %MON seaice_area_del2             =   1.4910215928748E-03
(PID.TID 0000.0001) %MON seaice_heff_max              =   8.2524611832872E+00
(PID.TID 0000.0001) %MON seaice_heff_min              =   0.0000000000000E+00
(PID.TID 0000.0001) %MON seaice_heff_mean             =   1.9350401313693E-01
(PID.TID 0000.0001) %MON seaice_heff_sd               =   9.4259256666794E-01
(PID.TID 0000.0001) %MON seaice_heff_del2             =   6.1152888872941E-03
(PID.TID 0000.0001) %MON seaice_hsnow_max             =   1.9813715770873E+00
(PID.TID 0000.0001) %MON seaice_hsnow_min             =   0.0000000000000E+00
(PID.TID 0000.0001) %MON seaice_hsnow_mean            =   2.1487254407355E-02
(PID.TID 0000.0001) %MON seaice_hsnow_sd              =   1.1543046083063E-01
(PID.TID 0000.0001) %MON seaice_hsnow_del2            =   1.4182416034437E-03
(PID.TID 0000.0001) // =======================================================
(PID.TID 0000.0001) // End MONITOR SEAICE statistics
(PID.TID 0000.0001) // =======================================================
 SEAICE_LSR: Residual Initial ipass,Uice,Vice=    1  2.34978097E-03  2.01237045E-03
 SEAICE_LSR (ipass=   1) iters,dU,Resid=     6  2.57851341E-05  8.24925660E-06
 SEAICE_LSR (ipass=   1) iters,dV,Resid=     6  3.30225271E-06  1.31544343E-05
 SEAICE_LSR: Residual Initial ipass,Uice,Vice=    2  1.44034697E-03  1.29073587E-03
 SEAICE_LSR (ipass=   2) iters,dU,Resid=     4  6.85357289E-05  1.30078037E-05
 SEAICE_LSR (ipass=   2) iters,dV,Resid=     4  6.98991865E-06  1.38289165E-05
 cg2d: Sum(rhs),rhsMax =  -9.23474926028970E+01  3.83620810930291E+01
(PID.TID 0000.0001)      cg2d_init_res =   2.04738294216264E-01
(PID.TID 0000.0001)      cg2d_iters(min,last) =      -1      10
(PID.TID 0000.0001)      cg2d_last_res =   7.43344914115678E-08
(PID.TID 0000.0001) // =======================================================
(PID.TID 0000.0001) // Begin MONITOR dynamic field statistics
(PID.TID 0000.0001) // =======================================================
(PID.TID 0000.0001) %MON time_tsnumber                =                    72
(PID.TID 0000.0001) %MON time_secondsf                =   6.4800000000000E+04
(PID.TID 0000.0001) %MON dynstat_eta_max              =   1.6712398678248E+00
(PID.TID 0000.0001) %MON dynstat_eta_min              =  -2.0521542890054E+00
(PID.TID 0000.0001) %MON dynstat_eta_mean             =   4.1165030389203E-02
(PID.TID 0000.0001) %MON dynstat_eta_sd               =   7.7774207016147E-02
(PID.TID 0000.0001) %MON dynstat_eta_del2             =   1.5365137121969E-03
(PID.TID 0000.0001) %MON dynstat_uvel_max             =   4.7466984329096E-01
(PID.TID 0000.0001) %MON dynstat_uvel_min             =  -6.2953926699609E-01
(PID.TID 0000.0001) %MON dynstat_uvel_mean            =   4.2772271861276E-07
(PID.TID 0000.0001) %MON dynstat_uvel_sd              =   5.5677862016274E-03
(PID.TID 0000.0001) %MON dynstat_uvel_del2            =   7.4252897403090E-05
(PID.TID 0000.0001) %MON dynstat_vvel_max             =   2.8420158385824E-01
(PID.TID 0000.0001) %MON dynstat_vvel_min             =  -4.1784620629838E-01
(PID.TID 0000.0001) %MON dynstat_vvel_mean            =   8.2474080250243E-04
(PID.TID 0000.0001) %MON dynstat_vvel_sd              =   5.2392398482044E-03
(PID.TID 0000.0001) %MON dynstat_vvel_del2            =   7.3186583155866E-05
(PID.TID 0000.0001) %MON dynstat_wvel_max             =   1.4499304318110E-04
(PID.TID 0000.0001) %MON dynstat_wvel_min             =  -1.9128974993404E-04
(PID.TID 0000.0001) %MON dynstat_wvel_mean            =  -2.1389884518752E-07
(PID.TID 0000.0001) %MON dynstat_wvel_sd              =   6.7114067561182E-06
(PID.TID 0000.0001) %MON dynstat_wvel_del2            =   7.6707865435877E-08
(PID.TID 0000.0001) %MON dynstat_theta_max            =   2.1862529143848E+01
(PID.TID 0000.0001) %MON dynstat_theta_min            =   1.6075866007667E+01
(PID.TID 0000.0001) %MON dynstat_theta_mean           =   1.9997931544363E+01
(PID.TID 0000.0001) %MON dynstat_theta_sd             =   2.6067104287498E-02
(PID.TID 0000.0001) %MON dynstat_theta_del2           =   3.6917055531788E-04
(PID.TID 0000.0001) %MON dynstat_salt_max             =   3.5078321018219E+01
(PID.TID 0000.0001) %MON dynstat_salt_min             =   2.8876814662998E+01
(PID.TID 0000.0001) %MON dynstat_salt_mean            =   3.4999598236060E+01
(PID.TID 0000.0001) %MON dynstat_salt_sd              =   3.0080279448193E-02
(PID.TID 0000.0001) %MON dynstat_salt_del2            =   7.9534311617812E-04
(PID.TID 0000.0001) %MON dynstat_sst_max              =   2.1862529143848E+01
(PID.TID 0000.0001) %MON dynstat_sst_min              =   1.6075866007667E+01
(PID.TID 0000.0001) %MON dynstat_sst_mean             =   2.0062801007421E+01
(PID.TID 0000.0001) %MON dynstat_sst_sd               =   1.9015654441056E-01
(PID.TID 0000.0001) %MON dynstat_sst_del2             =   4.3132238899089E-03
(PID.TID 0000.0001) %MON dynstat_sss_max              =   3.5078321018219E+01
(PID.TID 0000.0001) %MON dynstat_sss_min              =   2.8876814662998E+01
(PID.TID 0000.0001) %MON dynstat_sss_mean             =   3.4979687842002E+01
(PID.TID 0000.0001) %MON dynstat_sss_sd               =   2.5678365384646E-01
(PID.TID 0000.0001) %MON dynstat_sss_del2             =   9.9884956749243E-03
(PID.TID 0000.0001) %MON forcing_qnet_max             =   3.0090144042969E+03
(PID.TID 0000.0001) %MON forcing_qnet_min             =  -3.5652224121094E+03
(PID.TID 0000.0001) %MON forcing_qnet_mean            =  -2.5239690244424E+01
(PID.TID 0000.0001) %MON forcing_qnet_sd              =   4.7478567870174E+02
(PID.TID 0000.0001) %MON forcing_qnet_del2            =   6.2901959565273E+00
(PID.TID 0000.0001) %MON forcing_qsw_max              =   0.0000000000000E+00
(PID.TID 0000.0001) %MON forcing_qsw_min              =  -1.0903806518482E+02
(PID.TID 0000.0001) %MON forcing_qsw_mean             =  -1.7291117312523E+01
(PID.TID 0000.0001) %MON forcing_qsw_sd               =   2.8689274966506E+01
(PID.TID 0000.0001) %MON forcing_qsw_del2             =   1.3284413299959E-01
(PID.TID 0000.0001) %MON forcing_empmr_max            =   5.3174421191216E-03
(PID.TID 0000.0001) %MON forcing_empmr_min            =  -7.6429866254330E-02
(PID.TID 0000.0001) %MON forcing_empmr_mean           =  -3.7533757495005E-04
(PID.TID 0000.0001) %MON forcing_empmr_sd             =   3.3987422771671E-03
(PID.TID 0000.0001) %MON forcing_empmr_del2           =   1.3331109743004E-04
(PID.TID 0000.0001) %MON forcing_fu_max               =   5.7815215384016E-01
(PID.TID 0000.0001) %MON forcing_fu_min               =  -6.3288785972200E-01
(PID.TID 0000.0001) %MON forcing_fu_mean              =  -4.3056080813295E-04
(PID.TID 0000.0001) %MON forcing_fu_sd                =   8.5905630068334E-02
(PID.TID 0000.0001) %MON forcing_fu_del2              =   7.2290180817514E-04
(PID.TID 0000.0001) %MON forcing_fv_max               =   3.8388410458711E-01
(PID.TID 0000.0001) %MON forcing_fv_min               =  -3.8289987353675E-01
(PID.TID 0000.0001) %MON forcing_fv_mean              =  -7.1128916629518E-03
(PID.TID 0000.0001) %MON forcing_fv_sd                =   7.1664492888681E-02
(PID.TID 0000.0001) %MON forcing_fv_del2              =   5.9804280092157E-04
(PID.TID 0000.0001) %MON trAdv_CFL_u_max              =   1.8575109633812E-03
(PID.TID 0000.0001) %MON trAdv_CFL_v_max              =   1.3659651082314E-03
(PID.TID 0000.0001) %MON trAdv_CFL_w_max              =   1.9601543250824E-03
(PID.TID 0000.0001) %MON advcfl_uvel_max              =   1.8294468729297E-03
(PID.TID 0000.0001) %MON advcfl_vvel_max              =   1.4256469035438E-03
(PID.TID 0000.0001) %MON advcfl_wvel_max              =   2.6584301305854E-03
(PID.TID 0000.0001) %MON advcfl_W_hf_max              =   1.9601543250824E-03
(PID.TID 0000.0001) %MON pe_b_mean                    =   1.0315508020705E-05
(PID.TID 0000.0001) %MON ke_max                       =   1.6225892022305E-01
(PID.TID 0000.0001) %MON ke_mean                      =   2.7293515469538E-05
(PID.TID 0000.0001) %MON ke_vol                       =   1.3398173060058E+18
(PID.TID 0000.0001) %MON vort_r_min                   =  -3.3893033284825E-06
(PID.TID 0000.0001) %MON vort_r_max                   =   2.3601710100990E-06
(PID.TID 0000.0001) %MON vort_a_mean                  =  -2.0549865324846E-05
(PID.TID 0000.0001) %MON vort_a_sd                    =   7.5259464360019E-05
(PID.TID 0000.0001) %MON vort_p_mean                  =  -2.4783245845061E-05
(PID.TID 0000.0001) %MON vort_p_sd                    =   1.2810521312867E-04
(PID.TID 0000.0001) %MON surfExpan_theta_mean         =  -2.0978474999257E-07
(PID.TID 0000.0001) %MON surfExpan_salt_mean          =   8.5835181114309E-07
(PID.TID 0000.0001) // =======================================================
(PID.TID 0000.0001) // End MONITOR dynamic field statistics
(PID.TID 0000.0001) // =======================================================
(PID.TID 0000.0001) // =======================================================
(PID.TID 0000.0001) // Begin MONITOR SEAICE statistics
(PID.TID 0000.0001) // =======================================================
(PID.TID 0000.0001) %MON seaice_tsnumber              =                    72
(PID.TID 0000.0001) %MON seaice_time_sec              =   6.4800000000000E+04
(PID.TID 0000.0001) %MON seaice_uice_max              =   5.1607509528802E-01
(PID.TID 0000.0001) %MON seaice_uice_min              =  -5.6861658945432E-01
(PID.TID 0000.0001) %MON seaice_uice_mean             =  -4.1486780103743E-03
(PID.TID 0000.0001) %MON seaice_uice_sd               =   4.2064223274196E-02
(PID.TID 0000.0001) %MON seaice_uice_del2             =   8.3742616228613E-04
(PID.TID 0000.0001) %MON seaice_vice_max              =   2.9331557189545E-01
(PID.TID 0000.0001) %MON seaice_vice_min              =  -4.4642284455163E-01
(PID.TID 0000.0001) %MON seaice_vice_mean             =  -1.1711273311551E-02
(PID.TID 0000.0001) %MON seaice_vice_sd               =   3.6785931078996E-02
(PID.TID 0000.0001) %MON seaice_vice_del2             =   7.7012427231734E-04
(PID.TID 0000.0001) %MON seaice_area_max              =   9.8342857025275E-01
(PID.TID 0000.0001) %MON seaice_area_min              =   0.0000000000000E+00
(PID.TID 0000.0001) %MON seaice_area_mean             =   6.2078753906020E-02
(PID.TID 0000.0001) %MON seaice_area_sd               =   2.1802402013808E-01
(PID.TID 0000.0001) %MON seaice_area_del2             =   1.4872773102053E-03
(PID.TID 0000.0001) %MON seaice_heff_max              =   8.2498511784684E+00
(PID.TID 0000.0001) %MON seaice_heff_min              =   0.0000000000000E+00
(PID.TID 0000.0001) %MON seaice_heff_mean             =   1.9333413082902E-01
(PID.TID 0000.0001) %MON seaice_heff_sd               =   9.4210348432124E-01
(PID.TID 0000.0001) %MON seaice_heff_del2             =   6.1137091759716E-03
(PID.TID 0000.0001) %MON seaice_hsnow_max             =   1.9806599557113E+00
(PID.TID 0000.0001) %MON seaice_hsnow_min             =   0.0000000000000E+00
(PID.TID 0000.0001) %MON seaice_hsnow_mean            =   2.1467585625563E-02
(PID.TID 0000.0001) %MON seaice_hsnow_sd              =   1.1536945833752E-01
(PID.TID 0000.0001) %MON seaice_hsnow_del2            =   1.4176924071561E-03
(PID.TID 0000.0001) // =======================================================
(PID.TID 0000.0001) // End MONITOR SEAICE statistics
(PID.TID 0000.0001) // =======================================================
 Compute Stats, Diag. #    211  SIarea    vol(   0 ): 1.456E+15  Parms: SM      M1      
 Compute Stats, Diag. #    214  SIheff    vol(   0 ): 1.456E+15  Parms: SM      M1      
 Compute Stats, Diag. #    216  SIhsnow   vol(   0 ): 1.456E+15  Parms: SM      M1      
 Compute Stats, Diag. #     83  sIceLoad  vol(   0 ): 1.456E+15  Parms: SM      U1      
 Compute Stats, Diag. #    220  SIuice    vol(   0 ): 1.383E+15  Parms: UU      M1      
 Compute Stats, Diag. #    221  SIvice    vol(   0 ): 1.391E+15  Parms: VV      M1      
 Compute Stats, Diag. #    222  SItaux    vol(   0 ): 1.383E+15  Parms: UU      U1      
 Compute Stats, Diag. #    223  SItauy    vol(   0 ): 1.391E+15  Parms: VV      U1      
 Compute Stats, Diag. #    282  SIareaN   vol(   0 ): 7.278E+15  Parms: SM      MX      
 Compute Stats, Diag. #    281  SIheffN   vol(   0 ): 7.278E+15  Parms: SM      MX      
 Compute Stats, Diag. #    283  SIhsnowN  vol(   0 ): 7.278E+15  Parms: SM      MX      
 Compute Stats, Diag. #    287  SIqSnow   vol(   0 ): 7.278E+15  Parms: SM      MX      
 Compute Stats, Diag. #    286  SIqIce    vol(   0 ): 2.911E+16  Parms: SM      MX      
 Compute Stats, Diag. #    288  SImeltPd  vol(   0 ): 7.278E+15  Parms: SM      MX      
 Compute Stats, Diag. #    285  SItIces   vol(   0 ): 7.278E+15  Parms: SM      MX      
 Compute Stats, Diag. #    289  SIiceAge  vol(   0 ): 7.278E+15  Parms: SM      MX      
 Compute Stats, Diag. #    290  SI_dArea  vol(   0 ): 7.278E+15  Parms: SM      MX      
 Compute Stats, Diag. #    291  SI_dHeff  vol(   0 ): 7.278E+15  Parms: SM      MX      
 Compute Stats, Diag. #    292  SI_dHsnw  vol(   0 ): 7.278E+15  Parms: SM      MX      
 Compute Stats, Diag. #    295  SI_dQSnw  vol(   0 ): 7.278E+15  Parms: SM      MX      
 Compute Stats, Diag. #    294  SI_dQIce  vol(   0 ): 2.911E+16  Parms: SM      MX      
 SEAICE_LSR: Residual Initial ipass,Uice,Vice=    1  2.28528509E-03  1.95191312E-03
 SEAICE_LSR (ipass=   1) iters,dU,Resid=     6  2.23869039E-05  5.55493882E-06
 SEAICE_LSR (ipass=   1) iters,dV,Resid=     6  3.40493758E-06  1.35250756E-05
 SEAICE_LSR: Residual Initial ipass,Uice,Vice=    2  1.39568680E-03  1.22896857E-03
 SEAICE_LSR (ipass=   2) iters,dU,Resid=     4  6.07438907E-05  1.17682438E-05
 SEAICE_LSR (ipass=   2) iters,dV,Resid=     4  6.69710016E-06  1.49571852E-05
 cg2d: Sum(rhs),rhsMax =  -9.14700172561319E+01  3.90349903739381E+01
(PID.TID 0000.0001)      cg2d_init_res =   1.93553295261263E-01
(PID.TID 0000.0001)      cg2d_iters(min,last) =      -1      10
(PID.TID 0000.0001)      cg2d_last_res =   7.30477454508523E-08
(PID.TID 0000.0001) // =======================================================
(PID.TID 0000.0001) // Begin MONITOR dynamic field statistics
(PID.TID 0000.0001) // =======================================================
(PID.TID 0000.0001) %MON time_tsnumber                =                    73
(PID.TID 0000.0001) %MON time_secondsf                =   6.5700000000000E+04
(PID.TID 0000.0001) %MON dynstat_eta_max              =   1.7004211816503E+00
(PID.TID 0000.0001) %MON dynstat_eta_min              =  -2.0656699501193E+00
(PID.TID 0000.0001) %MON dynstat_eta_mean             =   4.1489099697040E-02
(PID.TID 0000.0001) %MON dynstat_eta_sd               =   7.8243928338063E-02
(PID.TID 0000.0001) %MON dynstat_eta_del2             =   1.5608050757907E-03
(PID.TID 0000.0001) %MON dynstat_uvel_max             =   4.3744603849566E-01
(PID.TID 0000.0001) %MON dynstat_uvel_min             =  -6.1130057175997E-01
(PID.TID 0000.0001) %MON dynstat_uvel_mean            =  -5.8699504677761E-06
(PID.TID 0000.0001) %MON dynstat_uvel_sd              =   5.5781588019223E-03
(PID.TID 0000.0001) %MON dynstat_uvel_del2            =   7.3165068411248E-05
(PID.TID 0000.0001) %MON dynstat_vvel_max             =   2.8346213137657E-01
(PID.TID 0000.0001) %MON dynstat_vvel_min             =  -3.8010227463923E-01
(PID.TID 0000.0001) %MON dynstat_vvel_mean            =   7.9835148483613E-04
(PID.TID 0000.0001) %MON dynstat_vvel_sd              =   5.2368658031389E-03
(PID.TID 0000.0001) %MON dynstat_vvel_del2            =   7.2074250824610E-05
(PID.TID 0000.0001) %MON dynstat_wvel_max             =   1.4676240981625E-04
(PID.TID 0000.0001) %MON dynstat_wvel_min             =  -1.8547714837673E-04
(PID.TID 0000.0001) %MON dynstat_wvel_mean            =  -2.0359580227630E-07
(PID.TID 0000.0001) %MON dynstat_wvel_sd              =   6.6814664820858E-06
(PID.TID 0000.0001) %MON dynstat_wvel_del2            =   7.6603352450186E-08
(PID.TID 0000.0001) %MON dynstat_theta_max            =   2.1878963799845E+01
(PID.TID 0000.0001) %MON dynstat_theta_min            =   1.6072719505517E+01
(PID.TID 0000.0001) %MON dynstat_theta_mean           =   1.9997933158694E+01
(PID.TID 0000.0001) %MON dynstat_theta_sd             =   2.6189360092126E-02
(PID.TID 0000.0001) %MON dynstat_theta_del2           =   3.7035473678160E-04
(PID.TID 0000.0001) %MON dynstat_salt_max             =   3.5078315246123E+01
(PID.TID 0000.0001) %MON dynstat_salt_min             =   2.8842973227797E+01
(PID.TID 0000.0001) %MON dynstat_salt_mean            =   3.4999595385931E+01
(PID.TID 0000.0001) %MON dynstat_salt_sd              =   3.0252412846854E-02
(PID.TID 0000.0001) %MON dynstat_salt_del2            =   7.9958880731928E-04
(PID.TID 0000.0001) %MON dynstat_sst_max              =   2.1878963799845E+01
(PID.TID 0000.0001) %MON dynstat_sst_min              =   1.6072719505517E+01
(PID.TID 0000.0001) %MON dynstat_sst_mean             =   2.0063561268477E+01
(PID.TID 0000.0001) %MON dynstat_sst_sd               =   1.9105764494298E-01
(PID.TID 0000.0001) %MON dynstat_sst_del2             =   4.3284091566836E-03
(PID.TID 0000.0001) %MON dynstat_sss_max              =   3.5078315246123E+01
(PID.TID 0000.0001) %MON dynstat_sss_min              =   2.8842973227797E+01
(PID.TID 0000.0001) %MON dynstat_sss_mean             =   3.4979534604656E+01
(PID.TID 0000.0001) %MON dynstat_sss_sd               =   2.5825777963923E-01
(PID.TID 0000.0001) %MON dynstat_sss_del2             =   1.0041823940228E-02
(PID.TID 0000.0001) %MON forcing_qnet_max             =   2.9733957519531E+03
(PID.TID 0000.0001) %MON forcing_qnet_min             =  -3.5212128906250E+03
(PID.TID 0000.0001) %MON forcing_qnet_mean            =  -2.6383041756968E+01
(PID.TID 0000.0001) %MON forcing_qnet_sd              =   4.7264420425814E+02
(PID.TID 0000.0001) %MON forcing_qnet_del2            =   6.2035924870909E+00
(PID.TID 0000.0001) %MON forcing_qsw_max              =   0.0000000000000E+00
(PID.TID 0000.0001) %MON forcing_qsw_min              =  -1.0883421100348E+02
(PID.TID 0000.0001) %MON forcing_qsw_mean             =  -1.7706898759247E+01
(PID.TID 0000.0001) %MON forcing_qsw_sd               =   2.8597769117614E+01
(PID.TID 0000.0001) %MON forcing_qsw_del2             =   1.3589954830563E-01
(PID.TID 0000.0001) %MON forcing_empmr_max            =   5.2627301774919E-03
(PID.TID 0000.0001) %MON forcing_empmr_min            =  -7.5642801821232E-02
(PID.TID 0000.0001) %MON forcing_empmr_mean           =  -3.7267970401353E-04
(PID.TID 0000.0001) %MON forcing_empmr_sd             =   3.3647107246059E-03
(PID.TID 0000.0001) %MON forcing_empmr_del2           =   1.3194307245102E-04
(PID.TID 0000.0001) %MON forcing_fu_max               =   5.7800724528276E-01
(PID.TID 0000.0001) %MON forcing_fu_min               =  -6.3650241070154E-01
(PID.TID 0000.0001) %MON forcing_fu_mean              =  -4.2831942281223E-04
(PID.TID 0000.0001) %MON forcing_fu_sd                =   8.5613477050603E-02
(PID.TID 0000.0001) %MON forcing_fu_del2              =   7.2122724942093E-04
(PID.TID 0000.0001) %MON forcing_fv_max               =   3.8252382735617E-01
(PID.TID 0000.0001) %MON forcing_fv_min               =  -3.7797253833408E-01
(PID.TID 0000.0001) %MON forcing_fv_mean              =  -7.0807911274548E-03
(PID.TID 0000.0001) %MON forcing_fv_sd                =   7.1495891622567E-02
(PID.TID 0000.0001) %MON forcing_fv_del2              =   5.9562726476318E-04
(PID.TID 0000.0001) %MON trAdv_CFL_u_max              =   1.8053785734760E-03
(PID.TID 0000.0001) %MON trAdv_CFL_v_max              =   1.3728300022444E-03
(PID.TID 0000.0001) %MON trAdv_CFL_w_max              =   1.9000864544508E-03
(PID.TID 0000.0001) %MON advcfl_uvel_max              =   1.7764450576097E-03
(PID.TID 0000.0001) %MON advcfl_vvel_max              =   1.4308982398250E-03
(PID.TID 0000.0001) %MON advcfl_wvel_max              =   2.6310539763907E-03
(PID.TID 0000.0001) %MON advcfl_W_hf_max              =   1.9000864544508E-03
(PID.TID 0000.0001) %MON pe_b_mean                    =   1.0448818296251E-05
(PID.TID 0000.0001) %MON ke_max                       =   1.4904328263505E-01
(PID.TID 0000.0001) %MON ke_mean                      =   2.7315253801781E-05
(PID.TID 0000.0001) %MON ke_vol                       =   1.3398174247714E+18
(PID.TID 0000.0001) %MON vort_r_min                   =  -3.2084480464113E-06
(PID.TID 0000.0001) %MON vort_r_max                   =   2.3449090256600E-06
(PID.TID 0000.0001) %MON vort_a_mean                  =  -2.0549865324846E-05
(PID.TID 0000.0001) %MON vort_a_sd                    =   7.5259459427746E-05
(PID.TID 0000.0001) %MON vort_p_mean                  =  -2.4783243528365E-05
(PID.TID 0000.0001) %MON vort_p_sd                    =   1.2810519418015E-04
(PID.TID 0000.0001) %MON surfExpan_theta_mean         =  -2.3426886089028E-07
(PID.TID 0000.0001) %MON surfExpan_salt_mean          =   8.5624992932768E-07
(PID.TID 0000.0001) // =======================================================
(PID.TID 0000.0001) // End MONITOR dynamic field statistics
(PID.TID 0000.0001) // =======================================================
(PID.TID 0000.0001) // =======================================================
(PID.TID 0000.0001) // Begin MONITOR SEAICE statistics
(PID.TID 0000.0001) // =======================================================
(PID.TID 0000.0001) %MON seaice_tsnumber              =                    73
(PID.TID 0000.0001) %MON seaice_time_sec              =   6.5700000000000E+04
(PID.TID 0000.0001) %MON seaice_uice_max              =   4.8352620239235E-01
(PID.TID 0000.0001) %MON seaice_uice_min              =  -5.5412692531409E-01
(PID.TID 0000.0001) %MON seaice_uice_mean             =  -4.1744071252044E-03
(PID.TID 0000.0001) %MON seaice_uice_sd               =   4.2312858728466E-02
(PID.TID 0000.0001) %MON seaice_uice_del2             =   8.2332225920369E-04
(PID.TID 0000.0001) %MON seaice_vice_max              =   2.8492402564421E-01
(PID.TID 0000.0001) %MON seaice_vice_min              =  -4.1047110855658E-01
(PID.TID 0000.0001) %MON seaice_vice_mean             =  -1.1597124555142E-02
(PID.TID 0000.0001) %MON seaice_vice_sd               =   3.6795316725725E-02
(PID.TID 0000.0001) %MON seaice_vice_del2             =   7.5454688393367E-04
(PID.TID 0000.0001) %MON seaice_area_max              =   9.8306356043121E-01
(PID.TID 0000.0001) %MON seaice_area_min              =   0.0000000000000E+00
(PID.TID 0000.0001) %MON seaice_area_mean             =   6.1988984740467E-02
(PID.TID 0000.0001) %MON seaice_area_sd               =   2.1778230504614E-01
(PID.TID 0000.0001) %MON seaice_area_del2             =   1.4835463860081E-03
(PID.TID 0000.0001) %MON seaice_heff_max              =   8.2472414026222E+00
(PID.TID 0000.0001) %MON seaice_heff_min              =   0.0000000000000E+00
(PID.TID 0000.0001) %MON seaice_heff_mean             =   1.9316436339903E-01
(PID.TID 0000.0001) %MON seaice_heff_sd               =   9.4161446236798E-01
(PID.TID 0000.0001) %MON seaice_heff_del2             =   6.1121307876814E-03
(PID.TID 0000.0001) %MON seaice_hsnow_max             =   1.9799293980265E+00
(PID.TID 0000.0001) %MON seaice_hsnow_min             =   0.0000000000000E+00
(PID.TID 0000.0001) %MON seaice_hsnow_mean            =   2.1447891426579E-02
(PID.TID 0000.0001) %MON seaice_hsnow_sd              =   1.1530851442934E-01
(PID.TID 0000.0001) %MON seaice_hsnow_del2            =   1.4171440334109E-03
(PID.TID 0000.0001) // =======================================================
(PID.TID 0000.0001) // End MONITOR SEAICE statistics
(PID.TID 0000.0001) // =======================================================
 Computing Diagnostic #    211  SIarea       Counter:       1   Parms: SM      M1      
 Computing Diagnostic #    214  SIheff       Counter:       1   Parms: SM      M1      
 Computing Diagnostic #    216  SIhsnow      Counter:       1   Parms: SM      M1      
 Computing Diagnostic #     83  sIceLoad     Counter:       1   Parms: SM      U1      
 Computing Diagnostic #    220  SIuice       Counter:       1   Parms: UU      M1      
           Vector  Mate for  SIuice       Diagnostic #    221  SIvice   exists 
 Computing Diagnostic #    221  SIvice       Counter:       1   Parms: VV      M1      
           Vector  Mate for  SIvice       Diagnostic #    220  SIuice   exists 
 Computing Diagnostic #    222  SItaux       Counter:       1   Parms: UU      U1      
           Vector  Mate for  SItaux       Diagnostic #    223  SItauy   exists 
 Computing Diagnostic #    223  SItauy       Counter:       1   Parms: VV      U1      
           Vector  Mate for  SItauy       Diagnostic #    222  SItaux   exists 
 Computing Diagnostic #    284  CPLoWGHT     Counter:       1   Parms: SM      M1      
 Computing Diagnostic #    282  SIareaN      Counter:       1   Parms: SM      MX      
 Computing Diagnostic #    281  SIheffN      Counter:       1   Parms: SM      MX      
 Computing Diagnostic #    283  SIhsnowN     Counter:       1   Parms: SM      MX      
 Computing Diagnostic #    287  SIqSnow      Counter:       1   Parms: SM      MX      
 Computing Diagnostic #    288  SImeltPd     Counter:       1   Parms: SM      MX      
 Computing Diagnostic #    285  SItIces      Counter:       1   Parms: SM      MX      
 Computing Diagnostic #    289  SIiceAge     Counter:       1   Parms: SM      MX      
 Computing Diagnostic #    290  SI_dArea     Counter:       1   Parms: SM      MX      
 Computing Diagnostic #    291  SI_dHeff     Counter:       1   Parms: SM      MX      
 Computing Diagnostic #    292  SI_dHsnw     Counter:       1   Parms: SM      MX      
 Computing Diagnostic #    295  SI_dQSnw     Counter:       1   Parms: SM      MX      
 Computing Diagnostic #    286  SIqIce       Counter:       1   Parms: SM      MX      
 Computing Diagnostic #    294  SI_dQIce     Counter:       1   Parms: SM      MX      
 SEAICE_LSR: Residual Initial ipass,Uice,Vice=    1  2.25118358E-03  1.95540403E-03
 SEAICE_LSR (ipass=   1) iters,dU,Resid=     4  6.25027944E-05  1.10130225E-05
 SEAICE_LSR (ipass=   1) iters,dV,Resid=     4  1.24436726E-05  3.41817633E-05
 SEAICE_LSR: Residual Initial ipass,Uice,Vice=    2  1.36734893E-03  1.24319171E-03
 SEAICE_LSR (ipass=   2) iters,dU,Resid=     4  3.66421893E-05  1.11579524E-05
 SEAICE_LSR (ipass=   2) iters,dV,Resid=     4  6.91060483E-06  1.73193950E-05
 cg2d: Sum(rhs),rhsMax =  -9.09506709157181E+01  3.95625755320787E+01
(PID.TID 0000.0001)      cg2d_init_res =   1.85034594381649E-01
(PID.TID 0000.0001)      cg2d_iters(min,last) =      -1      10
(PID.TID 0000.0001)      cg2d_last_res =   7.64989823701355E-08
(PID.TID 0000.0001) // =======================================================
(PID.TID 0000.0001) // Begin MONITOR dynamic field statistics
(PID.TID 0000.0001) // =======================================================
(PID.TID 0000.0001) %MON time_tsnumber                =                    74
(PID.TID 0000.0001) %MON time_secondsf                =   6.6600000000000E+04
(PID.TID 0000.0001) %MON dynstat_eta_max              =   1.7232904782992E+00
(PID.TID 0000.0001) %MON dynstat_eta_min              =  -2.0468413471901E+00
(PID.TID 0000.0001) %MON dynstat_eta_mean             =   4.1811104172708E-02
(PID.TID 0000.0001) %MON dynstat_eta_sd               =   7.8481041295575E-02
(PID.TID 0000.0001) %MON dynstat_eta_del2             =   1.5717880020179E-03
(PID.TID 0000.0001) %MON dynstat_uvel_max             =   3.9634758484121E-01
(PID.TID 0000.0001) %MON dynstat_uvel_min             =  -5.8973417113081E-01
(PID.TID 0000.0001) %MON dynstat_uvel_mean            =  -1.3441510207340E-05
(PID.TID 0000.0001) %MON dynstat_uvel_sd              =   5.5878185819249E-03
(PID.TID 0000.0001) %MON dynstat_uvel_del2            =   7.2205972640133E-05
(PID.TID 0000.0001) %MON dynstat_vvel_max             =   2.8078098332860E-01
(PID.TID 0000.0001) %MON dynstat_vvel_min             =  -3.4048397333418E-01
(PID.TID 0000.0001) %MON dynstat_vvel_mean            =   7.7083640943897E-04
(PID.TID 0000.0001) %MON dynstat_vvel_sd              =   5.2484772439776E-03
(PID.TID 0000.0001) %MON dynstat_vvel_del2            =   7.1466003673270E-05
(PID.TID 0000.0001) %MON dynstat_wvel_max             =   1.4823364689435E-04
(PID.TID 0000.0001) %MON dynstat_wvel_min             =  -1.7960061008910E-04
(PID.TID 0000.0001) %MON dynstat_wvel_mean            =  -1.9360493742268E-07
(PID.TID 0000.0001) %MON dynstat_wvel_sd              =   6.6521979446092E-06
(PID.TID 0000.0001) %MON dynstat_wvel_del2            =   7.6515703432510E-08
(PID.TID 0000.0001) %MON dynstat_theta_max            =   2.1895205334115E+01
(PID.TID 0000.0001) %MON dynstat_theta_min            =   1.6070179250598E+01
(PID.TID 0000.0001) %MON dynstat_theta_mean           =   1.9997934766347E+01
(PID.TID 0000.0001) %MON dynstat_theta_sd             =   2.6312024833770E-02
(PID.TID 0000.0001) %MON dynstat_theta_del2           =   3.7156587424027E-04
(PID.TID 0000.0001) %MON dynstat_salt_max             =   3.5078309840988E+01
(PID.TID 0000.0001) %MON dynstat_salt_min             =   2.8809839324651E+01
(PID.TID 0000.0001) %MON dynstat_salt_mean            =   3.4999592562622E+01
(PID.TID 0000.0001) %MON dynstat_salt_sd              =   3.0421200192587E-02
(PID.TID 0000.0001) %MON dynstat_salt_del2            =   8.0374034427736E-04
(PID.TID 0000.0001) %MON dynstat_sst_max              =   2.1895205334115E+01
(PID.TID 0000.0001) %MON dynstat_sst_min              =   1.6070179250598E+01
(PID.TID 0000.0001) %MON dynstat_sst_mean             =   2.0064327892567E+01
(PID.TID 0000.0001) %MON dynstat_sst_sd               =   1.9195580842899E-01
(PID.TID 0000.0001) %MON dynstat_sst_del2             =   4.3440910920420E-03
(PID.TID 0000.0001) %MON dynstat_sss_max              =   3.5078309840988E+01
(PID.TID 0000.0001) %MON dynstat_sss_min              =   2.8809839324651E+01
(PID.TID 0000.0001) %MON dynstat_sss_mean             =   3.4979386784418E+01
(PID.TID 0000.0001) %MON dynstat_sss_sd               =   2.5970395209204E-01
(PID.TID 0000.0001) %MON dynstat_sss_del2             =   1.0093978319353E-02
(PID.TID 0000.0001) %MON forcing_qnet_max             =   2.9401020507812E+03
(PID.TID 0000.0001) %MON forcing_qnet_min             =  -3.4787770996094E+03
(PID.TID 0000.0001) %MON forcing_qnet_mean            =  -2.6284466172027E+01
(PID.TID 0000.0001) %MON forcing_qnet_sd              =   4.7065063280642E+02
(PID.TID 0000.0001) %MON forcing_qnet_del2            =   6.2301073899885E+00
(PID.TID 0000.0001) %MON forcing_qsw_max              =   0.0000000000000E+00
(PID.TID 0000.0001) %MON forcing_qsw_min              =  -1.0840129442263E+02
(PID.TID 0000.0001) %MON forcing_qsw_mean             =  -1.7896301100378E+01
(PID.TID 0000.0001) %MON forcing_qsw_sd               =   2.8515386645453E+01
(PID.TID 0000.0001) %MON forcing_qsw_del2             =   1.3731853621778E-01
(PID.TID 0000.0001) %MON forcing_empmr_max            =   5.2086077630520E-03
(PID.TID 0000.0001) %MON forcing_empmr_min            =  -7.4864134192467E-02
(PID.TID 0000.0001) %MON forcing_empmr_mean           =  -3.7030514701724E-04
(PID.TID 0000.0001) %MON forcing_empmr_sd             =   3.3311147305568E-03
(PID.TID 0000.0001) %MON forcing_empmr_del2           =   1.3059186434378E-04
(PID.TID 0000.0001) %MON forcing_fu_max               =   5.7336376608910E-01
(PID.TID 0000.0001) %MON forcing_fu_min               =  -6.3210262942297E-01
(PID.TID 0000.0001) %MON forcing_fu_mean              =  -4.3209271755367E-04
(PID.TID 0000.0001) %MON forcing_fu_sd                =   8.5143096961554E-02
(PID.TID 0000.0001) %MON forcing_fu_del2              =   7.1785177822024E-04
(PID.TID 0000.0001) %MON forcing_fv_max               =   3.8097100487737E-01
(PID.TID 0000.0001) %MON forcing_fv_min               =  -3.7265820207281E-01
(PID.TID 0000.0001) %MON forcing_fv_mean              =  -7.0142591105544E-03
(PID.TID 0000.0001) %MON forcing_fv_sd                =   7.1271458676209E-02
(PID.TID 0000.0001) %MON forcing_fv_del2              =   5.9246230256419E-04
(PID.TID 0000.0001) %MON trAdv_CFL_u_max              =   1.7432130686736E-03
(PID.TID 0000.0001) %MON trAdv_CFL_v_max              =   1.3794224349985E-03
(PID.TID 0000.0001) %MON trAdv_CFL_w_max              =   1.8394330278400E-03
(PID.TID 0000.0001) %MON advcfl_uvel_max              =   1.7137728999544E-03
(PID.TID 0000.0001) %MON advcfl_vvel_max              =   1.4359928346576E-03
(PID.TID 0000.0001) %MON advcfl_wvel_max              =   2.6039698849554E-03
(PID.TID 0000.0001) %MON advcfl_W_hf_max              =   1.8394330278400E-03
(PID.TID 0000.0001) %MON pe_b_mean                    =   1.0534055673500E-05
(PID.TID 0000.0001) %MON ke_max                       =   1.3517000046554E-01
(PID.TID 0000.0001) %MON ke_mean                      =   2.7401344537424E-05
(PID.TID 0000.0001) %MON ke_vol                       =   1.3398175426959E+18
(PID.TID 0000.0001) %MON vort_r_min                   =  -3.0107550829155E-06
(PID.TID 0000.0001) %MON vort_r_max                   =   2.3313135205299E-06
(PID.TID 0000.0001) %MON vort_a_mean                  =  -2.0549865324846E-05
(PID.TID 0000.0001) %MON vort_a_sd                    =   7.5259454300205E-05
(PID.TID 0000.0001) %MON vort_p_mean                  =  -2.4783241228836E-05
(PID.TID 0000.0001) %MON vort_p_sd                    =   1.2810517415767E-04
(PID.TID 0000.0001) %MON surfExpan_theta_mean         =  -2.5684874364625E-07
(PID.TID 0000.0001) %MON surfExpan_salt_mean          =   8.5375464422408E-07
(PID.TID 0000.0001) // =======================================================
(PID.TID 0000.0001) // End MONITOR dynamic field statistics
(PID.TID 0000.0001) // =======================================================
(PID.TID 0000.0001) // =======================================================
(PID.TID 0000.0001) // Begin MONITOR SEAICE statistics
(PID.TID 0000.0001) // =======================================================
(PID.TID 0000.0001) %MON seaice_tsnumber              =                    74
(PID.TID 0000.0001) %MON seaice_time_sec              =   6.6600000000000E+04
(PID.TID 0000.0001) %MON seaice_uice_max              =   4.4630028484981E-01
(PID.TID 0000.0001) %MON seaice_uice_min              =  -5.3607205800433E-01
(PID.TID 0000.0001) %MON seaice_uice_mean             =  -4.2065100578513E-03
(PID.TID 0000.0001) %MON seaice_uice_sd               =   4.2533084510411E-02
(PID.TID 0000.0001) %MON seaice_uice_del2             =   8.0991882722588E-04
(PID.TID 0000.0001) %MON seaice_vice_max              =   2.7147067999389E-01
(PID.TID 0000.0001) %MON seaice_vice_min              =  -3.7229137326236E-01
(PID.TID 0000.0001) %MON seaice_vice_mean             =  -1.1467901319929E-02
(PID.TID 0000.0001) %MON seaice_vice_sd               =   3.6927168308398E-02
(PID.TID 0000.0001) %MON seaice_vice_del2             =   7.4455574194638E-04
(PID.TID 0000.0001) %MON seaice_area_max              =   9.8269669382523E-01
(PID.TID 0000.0001) %MON seaice_area_min              =   0.0000000000000E+00
(PID.TID 0000.0001) %MON seaice_area_mean             =   6.1899318606854E-02
(PID.TID 0000.0001) %MON seaice_area_sd               =   2.1754091179862E-01
(PID.TID 0000.0001) %MON seaice_area_del2             =   1.4798272185848E-03
(PID.TID 0000.0001) %MON seaice_heff_max              =   8.2446313973469E+00
(PID.TID 0000.0001) %MON seaice_heff_min              =   0.0000000000000E+00
(PID.TID 0000.0001) %MON seaice_heff_mean             =   1.9299473838868E-01
(PID.TID 0000.0001) %MON seaice_heff_sd               =   9.4112554832359E-01
(PID.TID 0000.0001) %MON seaice_heff_del2             =   6.1105548958353E-03
(PID.TID 0000.0001) %MON seaice_hsnow_max             =   1.9792105612393E+00
(PID.TID 0000.0001) %MON seaice_hsnow_min             =   0.0000000000000E+00
(PID.TID 0000.0001) %MON seaice_hsnow_mean            =   2.1428188768399E-02
(PID.TID 0000.0001) %MON seaice_hsnow_sd              =   1.1524761637391E-01
(PID.TID 0000.0001) %MON seaice_hsnow_del2            =   1.4165975127430E-03
(PID.TID 0000.0001) // =======================================================
(PID.TID 0000.0001) // End MONITOR SEAICE statistics
(PID.TID 0000.0001) // =======================================================
 SEAICE_LSR: Residual Initial ipass,Uice,Vice=    1  2.29265392E-03  1.85161842E-03
 SEAICE_LSR (ipass=   1) iters,dU,Resid=     4  5.04299192E-05  1.21992232E-05
 SEAICE_LSR (ipass=   1) iters,dV,Resid=     4  1.17353685E-05  3.57712323E-05
 SEAICE_LSR: Residual Initial ipass,Uice,Vice=    2  1.44561988E-03  1.16701730E-03
 SEAICE_LSR (ipass=   2) iters,dU,Resid=     4  3.06879507E-05  1.42178914E-05
 SEAICE_LSR (ipass=   2) iters,dV,Resid=     4  6.97604751E-06  2.03143214E-05
 cg2d: Sum(rhs),rhsMax =  -9.07876729151381E+01  3.99373073838715E+01
(PID.TID 0000.0001)      cg2d_init_res =   1.79179640982817E-01
(PID.TID 0000.0001)      cg2d_iters(min,last) =      -1      10
(PID.TID 0000.0001)      cg2d_last_res =   6.15357464210263E-08
(PID.TID 0000.0001) // =======================================================
(PID.TID 0000.0001) // Begin MONITOR dynamic field statistics
(PID.TID 0000.0001) // =======================================================
(PID.TID 0000.0001) %MON time_tsnumber                =                    75
(PID.TID 0000.0001) %MON time_secondsf                =   6.7500000000000E+04
(PID.TID 0000.0001) %MON dynstat_eta_max              =   1.7395237465663E+00
(PID.TID 0000.0001) %MON dynstat_eta_min              =  -1.9973582894126E+00
(PID.TID 0000.0001) %MON dynstat_eta_mean             =   4.2131491945806E-02
(PID.TID 0000.0001) %MON dynstat_eta_sd               =   7.8477933729186E-02
(PID.TID 0000.0001) %MON dynstat_eta_del2             =   1.5692472419112E-03
(PID.TID 0000.0001) %MON dynstat_uvel_max             =   3.5206009393875E-01
(PID.TID 0000.0001) %MON dynstat_uvel_min             =  -5.6499707574393E-01
(PID.TID 0000.0001) %MON dynstat_uvel_mean            =  -2.2109997969556E-05
(PID.TID 0000.0001) %MON dynstat_uvel_sd              =   5.5965463531919E-03
(PID.TID 0000.0001) %MON dynstat_uvel_del2            =   7.1393925200367E-05
(PID.TID 0000.0001) %MON dynstat_vvel_max             =   2.7615494020956E-01
(PID.TID 0000.0001) %MON dynstat_vvel_min             =  -2.9991433139984E-01
(PID.TID 0000.0001) %MON dynstat_vvel_mean            =   7.4252147865550E-04
(PID.TID 0000.0001) %MON dynstat_vvel_sd              =   5.2733925327369E-03
(PID.TID 0000.0001) %MON dynstat_vvel_del2            =   7.1341722872863E-05
(PID.TID 0000.0001) %MON dynstat_wvel_max             =   1.4935683959193E-04
(PID.TID 0000.0001) %MON dynstat_wvel_min             =  -1.7368619933542E-04
(PID.TID 0000.0001) %MON dynstat_wvel_mean            =  -1.8393842433261E-07
(PID.TID 0000.0001) %MON dynstat_wvel_sd              =   6.6224446917790E-06
(PID.TID 0000.0001) %MON dynstat_wvel_del2            =   7.6431725819795E-08
(PID.TID 0000.0001) %MON dynstat_theta_max            =   2.1911249684981E+01
(PID.TID 0000.0001) %MON dynstat_theta_min            =   1.6068258160040E+01
(PID.TID 0000.0001) %MON dynstat_theta_mean           =   1.9997936363317E+01
(PID.TID 0000.0001) %MON dynstat_theta_sd             =   2.6434268085783E-02
(PID.TID 0000.0001) %MON dynstat_theta_del2           =   3.7274687279047E-04
(PID.TID 0000.0001) %MON dynstat_salt_max             =   3.5078304949135E+01
(PID.TID 0000.0001) %MON dynstat_salt_min             =   2.8777397038392E+01
(PID.TID 0000.0001) %MON dynstat_salt_mean            =   3.4999589761210E+01
(PID.TID 0000.0001) %MON dynstat_salt_sd              =   3.0586624212773E-02
(PID.TID 0000.0001) %MON dynstat_salt_del2            =   8.0779611645933E-04
(PID.TID 0000.0001) %MON dynstat_sst_max              =   2.1911249684981E+01
(PID.TID 0000.0001) %MON dynstat_sst_min              =   1.6068258160040E+01
(PID.TID 0000.0001) %MON dynstat_sst_mean             =   2.0065091828677E+01
(PID.TID 0000.0001) %MON dynstat_sst_sd               =   1.9284596822325E-01
(PID.TID 0000.0001) %MON dynstat_sst_del2             =   4.3595902886342E-03
(PID.TID 0000.0001) %MON dynstat_sss_max              =   3.5078304949135E+01
(PID.TID 0000.0001) %MON dynstat_sss_min              =   2.8777397038392E+01
(PID.TID 0000.0001) %MON dynstat_sss_mean             =   3.4979241117450E+01
(PID.TID 0000.0001) %MON dynstat_sss_sd               =   2.6112172105208E-01
(PID.TID 0000.0001) %MON dynstat_sss_del2             =   1.0144943447965E-02
(PID.TID 0000.0001) %MON forcing_qnet_max             =   2.9053300781250E+03
(PID.TID 0000.0001) %MON forcing_qnet_min             =  -3.4358437500000E+03
(PID.TID 0000.0001) %MON forcing_qnet_mean            =  -2.6119509751603E+01
(PID.TID 0000.0001) %MON forcing_qnet_sd              =   4.6826268396279E+02
(PID.TID 0000.0001) %MON forcing_qnet_del2            =   6.0757812625940E+00
(PID.TID 0000.0001) %MON forcing_qsw_max              =   0.0000000000000E+00
(PID.TID 0000.0001) %MON forcing_qsw_min              =  -1.0876439710070E+02
(PID.TID 0000.0001) %MON forcing_qsw_mean             =  -1.8042355319145E+01
(PID.TID 0000.0001) %MON forcing_qsw_sd               =   2.8385317915074E+01
(PID.TID 0000.0001) %MON forcing_qsw_del2             =   1.3851690497296E-01
(PID.TID 0000.0001) %MON forcing_empmr_max            =   5.1549780182540E-03
(PID.TID 0000.0001) %MON forcing_empmr_min            =  -7.4092172086239E-02
(PID.TID 0000.0001) %MON forcing_empmr_mean           =  -3.6844593906340E-04
(PID.TID 0000.0001) %MON forcing_empmr_sd             =   3.2977269167851E-03
(PID.TID 0000.0001) %MON forcing_empmr_del2           =   1.2925196814884E-04
(PID.TID 0000.0001) %MON forcing_fu_max               =   5.6472415198328E-01
(PID.TID 0000.0001) %MON forcing_fu_min               =  -6.3052467506534E-01
(PID.TID 0000.0001) %MON forcing_fu_mean              =  -4.7977671268437E-04
(PID.TID 0000.0001) %MON forcing_fu_sd                =   8.4559344386524E-02
(PID.TID 0000.0001) %MON forcing_fu_del2              =   7.1388775280805E-04
(PID.TID 0000.0001) %MON forcing_fv_max               =   3.8044941169453E-01
(PID.TID 0000.0001) %MON forcing_fv_min               =  -3.6783511008628E-01
(PID.TID 0000.0001) %MON forcing_fv_mean              =  -6.9353393136412E-03
(PID.TID 0000.0001) %MON forcing_fv_sd                =   7.1099733431276E-02
(PID.TID 0000.0001) %MON forcing_fv_del2              =   5.8965461380499E-04
(PID.TID 0000.0001) %MON trAdv_CFL_u_max              =   1.6714424165903E-03
(PID.TID 0000.0001) %MON trAdv_CFL_v_max              =   1.3857091014232E-03
(PID.TID 0000.0001) %MON trAdv_CFL_w_max              =   1.7784729330332E-03
(PID.TID 0000.0001) %MON advcfl_uvel_max              =   1.6418866743075E-03
(PID.TID 0000.0001) %MON advcfl_vvel_max              =   1.4409053346877E-03
(PID.TID 0000.0001) %MON advcfl_wvel_max              =   2.5771190290866E-03
(PID.TID 0000.0001) %MON advcfl_W_hf_max              =   1.7784729330332E-03
(PID.TID 0000.0001) %MON pe_b_mean                    =   1.0569232585357E-05
(PID.TID 0000.0001) %MON ke_max                       =   1.3180944883572E-01
(PID.TID 0000.0001) %MON ke_mean                      =   2.7548092249400E-05
(PID.TID 0000.0001) %MON ke_vol                       =   1.3398176598690E+18
(PID.TID 0000.0001) %MON vort_r_min                   =  -2.7976866576379E-06
(PID.TID 0000.0001) %MON vort_r_max                   =   2.3201401976718E-06
(PID.TID 0000.0001) %MON vort_a_mean                  =  -2.0549865324846E-05
(PID.TID 0000.0001) %MON vort_a_sd                    =   7.5259449070117E-05
(PID.TID 0000.0001) %MON vort_p_mean                  =  -2.4783238946447E-05
(PID.TID 0000.0001) %MON vort_p_sd                    =   1.2810515393660E-04
(PID.TID 0000.0001) %MON surfExpan_theta_mean         =  -2.7733932813751E-07
(PID.TID 0000.0001) %MON surfExpan_salt_mean          =   8.5082165294404E-07
(PID.TID 0000.0001) // =======================================================
(PID.TID 0000.0001) // End MONITOR dynamic field statistics
(PID.TID 0000.0001) // =======================================================
(PID.TID 0000.0001) // =======================================================
(PID.TID 0000.0001) // Begin MONITOR SEAICE statistics
(PID.TID 0000.0001) // =======================================================
(PID.TID 0000.0001) %MON seaice_tsnumber              =                    75
(PID.TID 0000.0001) %MON seaice_time_sec              =   6.7500000000000E+04
(PID.TID 0000.0001) %MON seaice_uice_max              =   4.0505364464126E-01
(PID.TID 0000.0001) %MON seaice_uice_min              =  -5.1478831186430E-01
(PID.TID 0000.0001) %MON seaice_uice_mean             =  -4.2507433669149E-03
(PID.TID 0000.0001) %MON seaice_uice_sd               =   4.2736240532348E-02
(PID.TID 0000.0001) %MON seaice_uice_del2             =   7.9767214450686E-04
(PID.TID 0000.0001) %MON seaice_vice_max              =   2.5657635476999E-01
(PID.TID 0000.0001) %MON seaice_vice_min              =  -3.3219101589128E-01
(PID.TID 0000.0001) %MON seaice_vice_mean             =  -1.1317106240547E-02
(PID.TID 0000.0001) %MON seaice_vice_sd               =   3.7185131471681E-02
(PID.TID 0000.0001) %MON seaice_vice_del2             =   7.4015790166672E-04
(PID.TID 0000.0001) %MON seaice_area_max              =   9.8232795372560E-01
(PID.TID 0000.0001) %MON seaice_area_min              =   0.0000000000000E+00
(PID.TID 0000.0001) %MON seaice_area_mean             =   6.1809752132644E-02
(PID.TID 0000.0001) %MON seaice_area_sd               =   2.1729978543237E-01
(PID.TID 0000.0001) %MON seaice_area_del2             =   1.4761023535092E-03
(PID.TID 0000.0001) %MON seaice_heff_max              =   8.2420211896499E+00
(PID.TID 0000.0001) %MON seaice_heff_min              =   0.0000000000000E+00
(PID.TID 0000.0001) %MON seaice_heff_mean             =   1.9282526091566E-01
(PID.TID 0000.0001) %MON seaice_heff_sd               =   9.4063669724185E-01
(PID.TID 0000.0001) %MON seaice_heff_del2             =   6.1089807057244E-03
(PID.TID 0000.0001) %MON seaice_hsnow_max             =   1.9784969121439E+00
(PID.TID 0000.0001) %MON seaice_hsnow_min             =   0.0000000000000E+00
(PID.TID 0000.0001) %MON seaice_hsnow_mean            =   2.1408555445777E-02
(PID.TID 0000.0001) %MON seaice_hsnow_sd              =   1.1518695019703E-01
(PID.TID 0000.0001) %MON seaice_hsnow_del2            =   1.4160512559779E-03
(PID.TID 0000.0001) // =======================================================
(PID.TID 0000.0001) // End MONITOR SEAICE statistics
(PID.TID 0000.0001) // =======================================================
 SEAICE_LSR: Residual Initial ipass,Uice,Vice=    1  2.36694761E-03  1.81329488E-03
 SEAICE_LSR (ipass=   1) iters,dU,Resid=     4  3.75007571E-05  1.90229602E-05
 SEAICE_LSR (ipass=   1) iters,dV,Resid=     4  1.21295188E-05  3.80550522E-05
 SEAICE_LSR: Residual Initial ipass,Uice,Vice=    2  1.56485994E-03  1.17579613E-03
 SEAICE_LSR (ipass=   2) iters,dU,Resid=     4  2.43250098E-05  2.00080258E-05
 SEAICE_LSR (ipass=   2) iters,dV,Resid=     4  7.55300941E-06  2.29588666E-05
 cg2d: Sum(rhs),rhsMax =  -9.09834866568562E+01  4.01528867092862E+01
(PID.TID 0000.0001)      cg2d_init_res =   1.75901414062521E-01
(PID.TID 0000.0001)      cg2d_iters(min,last) =      -1      10
(PID.TID 0000.0001)      cg2d_last_res =   3.87233757945365E-08
(PID.TID 0000.0001) // =======================================================
(PID.TID 0000.0001) // Begin MONITOR dynamic field statistics
(PID.TID 0000.0001) // =======================================================
(PID.TID 0000.0001) %MON time_tsnumber                =                    76
(PID.TID 0000.0001) %MON time_secondsf                =   6.8400000000000E+04
(PID.TID 0000.0001) %MON dynstat_eta_max              =   1.7488500921891E+00
(PID.TID 0000.0001) %MON dynstat_eta_min              =  -1.9192905906030E+00
(PID.TID 0000.0001) %MON dynstat_eta_mean             =   4.2450276411786E-02
(PID.TID 0000.0001) %MON dynstat_eta_sd               =   7.8241299998832E-02
(PID.TID 0000.0001) %MON dynstat_eta_del2             =   1.5535853197680E-03
(PID.TID 0000.0001) %MON dynstat_uvel_max             =   3.0529708830190E-01
(PID.TID 0000.0001) %MON dynstat_uvel_min             =  -5.3728783400265E-01
(PID.TID 0000.0001) %MON dynstat_uvel_mean            =  -3.1664444621336E-05
(PID.TID 0000.0001) %MON dynstat_uvel_sd              =   5.6041401357180E-03
(PID.TID 0000.0001) %MON dynstat_uvel_del2            =   7.0740071936305E-05
(PID.TID 0000.0001) %MON dynstat_vvel_max             =   2.6960109105960E-01
(PID.TID 0000.0001) %MON dynstat_vvel_min             =  -3.0089492083410E-01
(PID.TID 0000.0001) %MON dynstat_vvel_mean            =   7.1372991840812E-04
(PID.TID 0000.0001) %MON dynstat_vvel_sd              =   5.3102718771053E-03
(PID.TID 0000.0001) %MON dynstat_vvel_del2            =   7.1637855871326E-05
(PID.TID 0000.0001) %MON dynstat_wvel_max             =   1.5006873856885E-04
(PID.TID 0000.0001) %MON dynstat_wvel_min             =  -1.6775953043648E-04
(PID.TID 0000.0001) %MON dynstat_wvel_mean            =  -1.7426223911722E-07
(PID.TID 0000.0001) %MON dynstat_wvel_sd              =   6.5909779914866E-06
(PID.TID 0000.0001) %MON dynstat_wvel_del2            =   7.6333541043005E-08
(PID.TID 0000.0001) %MON dynstat_theta_max            =   2.1927101614478E+01
(PID.TID 0000.0001) %MON dynstat_theta_min            =   1.6066923821271E+01
(PID.TID 0000.0001) %MON dynstat_theta_mean           =   1.9997937935054E+01
(PID.TID 0000.0001) %MON dynstat_theta_sd             =   2.6556333756978E-02
(PID.TID 0000.0001) %MON dynstat_theta_del2           =   3.7392337003544E-04
(PID.TID 0000.0001) %MON dynstat_salt_max             =   3.5078300318986E+01
(PID.TID 0000.0001) %MON dynstat_salt_min             =   2.8745630612876E+01
(PID.TID 0000.0001) %MON dynstat_salt_mean            =   3.4999586977949E+01
(PID.TID 0000.0001) %MON dynstat_salt_sd              =   3.0748777738707E-02
(PID.TID 0000.0001) %MON dynstat_salt_del2            =   8.1175920801235E-04
(PID.TID 0000.0001) %MON dynstat_sst_max              =   2.1927101614478E+01
(PID.TID 0000.0001) %MON dynstat_sst_min              =   1.6066923821271E+01
(PID.TID 0000.0001) %MON dynstat_sst_mean             =   2.0065845740507E+01
(PID.TID 0000.0001) %MON dynstat_sst_sd               =   1.9372974617248E-01
(PID.TID 0000.0001) %MON dynstat_sst_del2             =   4.3747501741820E-03
(PID.TID 0000.0001) %MON dynstat_sss_max              =   3.5078300318986E+01
(PID.TID 0000.0001) %MON dynstat_sss_min              =   2.8745630612876E+01
(PID.TID 0000.0001) %MON dynstat_sss_mean             =   3.4979094865070E+01
(PID.TID 0000.0001) %MON dynstat_sss_sd               =   2.6251126865208E-01
(PID.TID 0000.0001) %MON dynstat_sss_del2             =   1.0194731743235E-02
(PID.TID 0000.0001) %MON forcing_qnet_max             =   2.8719111328125E+03
(PID.TID 0000.0001) %MON forcing_qnet_min             =  -3.3944370117188E+03
(PID.TID 0000.0001) %MON forcing_qnet_mean            =  -2.5710434436148E+01
(PID.TID 0000.0001) %MON forcing_qnet_sd              =   4.6599741816073E+02
(PID.TID 0000.0001) %MON forcing_qnet_del2            =   5.8598130681661E+00
(PID.TID 0000.0001) %MON forcing_qsw_max              =   0.0000000000000E+00
(PID.TID 0000.0001) %MON forcing_qsw_min              =  -1.0899847102534E+02
(PID.TID 0000.0001) %MON forcing_qsw_mean             =  -1.8134473926735E+01
(PID.TID 0000.0001) %MON forcing_qsw_sd               =   2.8216428494133E+01
(PID.TID 0000.0001) %MON forcing_qsw_del2             =   1.3949040298681E-01
(PID.TID 0000.0001) %MON forcing_empmr_max            =   5.1020369865000E-03
(PID.TID 0000.0001) %MON forcing_empmr_min            =  -7.3329441249371E-02
(PID.TID 0000.0001) %MON forcing_empmr_mean           =  -3.6660213587716E-04
(PID.TID 0000.0001) %MON forcing_empmr_sd             =   3.2646826501142E-03
(PID.TID 0000.0001) %MON forcing_empmr_del2           =   1.2792413866734E-04
(PID.TID 0000.0001) %MON forcing_fu_max               =   5.5146261493949E-01
(PID.TID 0000.0001) %MON forcing_fu_min               =  -6.2780365463288E-01
(PID.TID 0000.0001) %MON forcing_fu_mean              =  -5.3755194853825E-04
(PID.TID 0000.0001) %MON forcing_fu_sd                =   8.3995790109105E-02
(PID.TID 0000.0001) %MON forcing_fu_del2              =   7.1010537207080E-04
(PID.TID 0000.0001) %MON forcing_fv_max               =   3.8017169598608E-01
(PID.TID 0000.0001) %MON forcing_fv_min               =  -3.6074923965323E-01
(PID.TID 0000.0001) %MON forcing_fv_mean              =  -6.8617156021063E-03
(PID.TID 0000.0001) %MON forcing_fv_sd                =   7.1013502865630E-02
(PID.TID 0000.0001) %MON forcing_fv_del2              =   5.8710130292854E-04
(PID.TID 0000.0001) %MON trAdv_CFL_u_max              =   1.5906279890665E-03
(PID.TID 0000.0001) %MON trAdv_CFL_v_max              =   1.3916587525772E-03
(PID.TID 0000.0001) %MON trAdv_CFL_w_max              =   1.7174846853633E-03
(PID.TID 0000.0001) %MON advcfl_uvel_max              =   1.5613633641465E-03
(PID.TID 0000.0001) %MON advcfl_vvel_max              =   1.4456164684984E-03
(PID.TID 0000.0001) %MON advcfl_wvel_max              =   2.5505892608477E-03
(PID.TID 0000.0001) %MON advcfl_W_hf_max              =   1.7174846853633E-03
(PID.TID 0000.0001) %MON pe_b_mean                    =   1.0555747841065E-05
(PID.TID 0000.0001) %MON ke_max                       =   1.2860457094617E-01
(PID.TID 0000.0001) %MON ke_mean                      =   2.7749052476283E-05
(PID.TID 0000.0001) %MON ke_vol                       =   1.3398177764539E+18
(PID.TID 0000.0001) %MON vort_r_min                   =  -2.5708924439250E-06
(PID.TID 0000.0001) %MON vort_r_max                   =   2.3119172089633E-06
(PID.TID 0000.0001) %MON vort_a_mean                  =  -2.0549865324846E-05
(PID.TID 0000.0001) %MON vort_a_sd                    =   7.5259443828730E-05
(PID.TID 0000.0001) %MON vort_p_mean                  =  -2.4783236680123E-05
(PID.TID 0000.0001) %MON vort_p_sd                    =   1.2810513438589E-04
(PID.TID 0000.0001) %MON surfExpan_theta_mean         =  -2.9542382683448E-07
(PID.TID 0000.0001) %MON surfExpan_salt_mean          =   8.4742120886302E-07
(PID.TID 0000.0001) // =======================================================
(PID.TID 0000.0001) // End MONITOR dynamic field statistics
(PID.TID 0000.0001) // =======================================================
(PID.TID 0000.0001) // =======================================================
(PID.TID 0000.0001) // Begin MONITOR SEAICE statistics
(PID.TID 0000.0001) // =======================================================
(PID.TID 0000.0001) %MON seaice_tsnumber              =                    76
(PID.TID 0000.0001) %MON seaice_time_sec              =   6.8400000000000E+04
(PID.TID 0000.0001) %MON seaice_uice_max              =   3.6048055040837E-01
(PID.TID 0000.0001) %MON seaice_uice_min              =  -4.9047676937287E-01
(PID.TID 0000.0001) %MON seaice_uice_mean             =  -4.3114692413695E-03
(PID.TID 0000.0001) %MON seaice_uice_sd               =   4.2902732059382E-02
(PID.TID 0000.0001) %MON seaice_uice_del2             =   7.8693607932256E-04
(PID.TID 0000.0001) %MON seaice_vice_max              =   2.6072021152977E-01
(PID.TID 0000.0001) %MON seaice_vice_min              =  -2.9045463046164E-01
(PID.TID 0000.0001) %MON seaice_vice_mean             =  -1.1154032451637E-02
(PID.TID 0000.0001) %MON seaice_vice_sd               =   3.7547343308547E-02
(PID.TID 0000.0001) %MON seaice_vice_del2             =   7.4093243552222E-04
(PID.TID 0000.0001) %MON seaice_area_max              =   9.8195761283950E-01
(PID.TID 0000.0001) %MON seaice_area_min              =   0.0000000000000E+00
(PID.TID 0000.0001) %MON seaice_area_mean             =   6.1720290654466E-02
(PID.TID 0000.0001) %MON seaice_area_sd               =   2.1705885134002E-01
(PID.TID 0000.0001) %MON seaice_area_del2             =   1.4723608558413E-03
(PID.TID 0000.0001) %MON seaice_heff_max              =   8.2394108027986E+00
(PID.TID 0000.0001) %MON seaice_heff_min              =   0.0000000000000E+00
(PID.TID 0000.0001) %MON seaice_heff_mean             =   1.9265590163443E-01
(PID.TID 0000.0001) %MON seaice_heff_sd               =   9.4014788923258E-01
(PID.TID 0000.0001) %MON seaice_heff_del2             =   6.1074095674454E-03
(PID.TID 0000.0001) %MON seaice_hsnow_max             =   1.9777661303151E+00
(PID.TID 0000.0001) %MON seaice_hsnow_min             =   0.0000000000000E+00
(PID.TID 0000.0001) %MON seaice_hsnow_mean            =   2.1388963008249E-02
(PID.TID 0000.0001) %MON seaice_hsnow_sd              =   1.1512618457181E-01
(PID.TID 0000.0001) %MON seaice_hsnow_del2            =   1.4155035622654E-03
(PID.TID 0000.0001) // =======================================================
(PID.TID 0000.0001) // End MONITOR SEAICE statistics
(PID.TID 0000.0001) // =======================================================
 Compute Stats, Diag. #    211  SIarea    vol(   0 ): 1.456E+15  Parms: SM      M1      
 Compute Stats, Diag. #    214  SIheff    vol(   0 ): 1.456E+15  Parms: SM      M1      
 Compute Stats, Diag. #    216  SIhsnow   vol(   0 ): 1.456E+15  Parms: SM      M1      
 Compute Stats, Diag. #     83  sIceLoad  vol(   0 ): 1.456E+15  Parms: SM      U1      
 Compute Stats, Diag. #    220  SIuice    vol(   0 ): 1.383E+15  Parms: UU      M1      
 Compute Stats, Diag. #    221  SIvice    vol(   0 ): 1.391E+15  Parms: VV      M1      
 Compute Stats, Diag. #    222  SItaux    vol(   0 ): 1.383E+15  Parms: UU      U1      
 Compute Stats, Diag. #    223  SItauy    vol(   0 ): 1.391E+15  Parms: VV      U1      
 Compute Stats, Diag. #    282  SIareaN   vol(   0 ): 7.278E+15  Parms: SM      MX      
 Compute Stats, Diag. #    281  SIheffN   vol(   0 ): 7.278E+15  Parms: SM      MX      
 Compute Stats, Diag. #    283  SIhsnowN  vol(   0 ): 7.278E+15  Parms: SM      MX      
 Compute Stats, Diag. #    287  SIqSnow   vol(   0 ): 7.278E+15  Parms: SM      MX      
 Compute Stats, Diag. #    286  SIqIce    vol(   0 ): 2.911E+16  Parms: SM      MX      
 Compute Stats, Diag. #    288  SImeltPd  vol(   0 ): 7.278E+15  Parms: SM      MX      
 Compute Stats, Diag. #    285  SItIces   vol(   0 ): 7.278E+15  Parms: SM      MX      
 Compute Stats, Diag. #    289  SIiceAge  vol(   0 ): 7.278E+15  Parms: SM      MX      
 Compute Stats, Diag. #    290  SI_dArea  vol(   0 ): 7.278E+15  Parms: SM      MX      
 Compute Stats, Diag. #    291  SI_dHeff  vol(   0 ): 7.278E+15  Parms: SM      MX      
 Compute Stats, Diag. #    292  SI_dHsnw  vol(   0 ): 7.278E+15  Parms: SM      MX      
 Compute Stats, Diag. #    295  SI_dQSnw  vol(   0 ): 7.278E+15  Parms: SM      MX      
 Compute Stats, Diag. #    294  SI_dQIce  vol(   0 ): 2.911E+16  Parms: SM      MX      
 SEAICE_LSR: Residual Initial ipass,Uice,Vice=    1  2.44197499E-03  1.80356516E-03
 SEAICE_LSR (ipass=   1) iters,dU,Resid=     4  1.93974929E-05  2.89974128E-05
 SEAICE_LSR (ipass=   1) iters,dV,Resid=     4  1.23495308E-05  3.97748196E-05
 SEAICE_LSR: Residual Initial ipass,Uice,Vice=    2  1.68056513E-03  1.19523656E-03
 SEAICE_LSR (ipass=   2) iters,dU,Resid=     4  1.40538052E-05  2.75359504E-05
 SEAICE_LSR (ipass=   2) iters,dV,Resid=     4  7.92489655E-06  2.50400682E-05
 cg2d: Sum(rhs),rhsMax =  -9.15456289298579E+01  4.02043821195436E+01
(PID.TID 0000.0001)      cg2d_init_res =   1.74937709654153E-01
(PID.TID 0000.0001)      cg2d_iters(min,last) =      -1      10
(PID.TID 0000.0001)      cg2d_last_res =   4.79606745021656E-08
(PID.TID 0000.0001) // =======================================================
(PID.TID 0000.0001) // Begin MONITOR dynamic field statistics
(PID.TID 0000.0001) // =======================================================
(PID.TID 0000.0001) %MON time_tsnumber                =                    77
(PID.TID 0000.0001) %MON time_secondsf                =   6.9300000000000E+04
(PID.TID 0000.0001) %MON dynstat_eta_max              =   1.7510576524577E+00
(PID.TID 0000.0001) %MON dynstat_eta_min              =  -1.8150452050352E+00
(PID.TID 0000.0001) %MON dynstat_eta_mean             =   4.2767333961549E-02
(PID.TID 0000.0001) %MON dynstat_eta_sd               =   7.7791629574902E-02
(PID.TID 0000.0001) %MON dynstat_eta_del2             =   1.5257685843929E-03
(PID.TID 0000.0001) %MON dynstat_uvel_max             =   2.9465378754322E-01
(PID.TID 0000.0001) %MON dynstat_uvel_min             =  -5.0684247284086E-01
(PID.TID 0000.0001) %MON dynstat_uvel_mean            =  -4.1895146538761E-05
(PID.TID 0000.0001) %MON dynstat_uvel_sd              =   5.6103760920847E-03
(PID.TID 0000.0001) %MON dynstat_uvel_del2            =   7.0247431799015E-05
(PID.TID 0000.0001) %MON dynstat_vvel_max             =   2.6117326942886E-01
(PID.TID 0000.0001) %MON dynstat_vvel_min             =  -3.0182975882288E-01
(PID.TID 0000.0001) %MON dynstat_vvel_mean            =   6.8476399252960E-04
(PID.TID 0000.0001) %MON dynstat_vvel_sd              =   5.3572349869437E-03
(PID.TID 0000.0001) %MON dynstat_vvel_del2            =   7.2258463409636E-05
(PID.TID 0000.0001) %MON dynstat_wvel_max             =   1.5065074392805E-04
(PID.TID 0000.0001) %MON dynstat_wvel_min             =  -1.6184470695305E-04
(PID.TID 0000.0001) %MON dynstat_wvel_mean            =  -1.6450493834088E-07
(PID.TID 0000.0001) %MON dynstat_wvel_sd              =   6.5576898748353E-06
(PID.TID 0000.0001) %MON dynstat_wvel_del2            =   7.6216062405076E-08
(PID.TID 0000.0001) %MON dynstat_theta_max            =   2.1942752873367E+01
(PID.TID 0000.0001) %MON dynstat_theta_min            =   1.6066131262738E+01
(PID.TID 0000.0001) %MON dynstat_theta_mean           =   1.9997939573088E+01
(PID.TID 0000.0001) %MON dynstat_theta_sd             =   2.6678417352874E-02
(PID.TID 0000.0001) %MON dynstat_theta_del2           =   3.7508583959451E-04
(PID.TID 0000.0001) %MON dynstat_salt_max             =   3.5078296193756E+01
(PID.TID 0000.0001) %MON dynstat_salt_min             =   2.8714524918673E+01
(PID.TID 0000.0001) %MON dynstat_salt_mean            =   3.4999584218611E+01
(PID.TID 0000.0001) %MON dynstat_salt_sd              =   3.0907736487959E-02
(PID.TID 0000.0001) %MON dynstat_salt_del2            =   8.1562979319748E-04
(PID.TID 0000.0001) %MON dynstat_sst_max              =   2.1942752873367E+01
(PID.TID 0000.0001) %MON dynstat_sst_min              =   1.6066131262738E+01
(PID.TID 0000.0001) %MON dynstat_sst_mean             =   2.0066600781571E+01
(PID.TID 0000.0001) %MON dynstat_sst_sd               =   1.9460761371241E-01
(PID.TID 0000.0001) %MON dynstat_sst_del2             =   4.3897747030682E-03
(PID.TID 0000.0001) %MON dynstat_sss_max              =   3.5078296193756E+01
(PID.TID 0000.0001) %MON dynstat_sss_min              =   2.8714524918673E+01
(PID.TID 0000.0001) %MON dynstat_sss_mean             =   3.4978951446330E+01
(PID.TID 0000.0001) %MON dynstat_sss_sd               =   2.6387362864459E-01
(PID.TID 0000.0001) %MON dynstat_sss_del2             =   1.0243361679354E-02
(PID.TID 0000.0001) %MON forcing_qnet_max             =   2.8379729003906E+03
(PID.TID 0000.0001) %MON forcing_qnet_min             =  -3.3515517578125E+03
(PID.TID 0000.0001) %MON forcing_qnet_mean            =  -2.6850647719250E+01
(PID.TID 0000.0001) %MON forcing_qnet_sd              =   4.6420759840033E+02
(PID.TID 0000.0001) %MON forcing_qnet_del2            =   5.8091226881184E+00
(PID.TID 0000.0001) %MON forcing_qsw_max              =   0.0000000000000E+00
(PID.TID 0000.0001) %MON forcing_qsw_min              =  -1.0893911321888E+02
(PID.TID 0000.0001) %MON forcing_qsw_mean             =  -1.8415107003029E+01
(PID.TID 0000.0001) %MON forcing_qsw_sd               =   2.8030081579925E+01
(PID.TID 0000.0001) %MON forcing_qsw_del2             =   1.4291857408698E-01
(PID.TID 0000.0001) %MON forcing_empmr_max            =   5.0494889728725E-03
(PID.TID 0000.0001) %MON forcing_empmr_min            =  -7.2574272751808E-02
(PID.TID 0000.0001) %MON forcing_empmr_mean           =  -3.6461618222761E-04
(PID.TID 0000.0001) %MON forcing_empmr_sd             =   3.2319747779194E-03
(PID.TID 0000.0001) %MON forcing_empmr_del2           =   1.2661374418105E-04
(PID.TID 0000.0001) %MON forcing_fu_max               =   5.3655233763164E-01
(PID.TID 0000.0001) %MON forcing_fu_min               =  -6.2732977560355E-01
(PID.TID 0000.0001) %MON forcing_fu_mean              =  -6.1831693989173E-04
(PID.TID 0000.0001) %MON forcing_fu_sd                =   8.3489743076591E-02
(PID.TID 0000.0001) %MON forcing_fu_del2              =   7.0663185937796E-04
(PID.TID 0000.0001) %MON forcing_fv_max               =   3.7904479554254E-01
(PID.TID 0000.0001) %MON forcing_fv_min               =  -3.5694769406086E-01
(PID.TID 0000.0001) %MON forcing_fv_mean              =  -6.8065331109956E-03
(PID.TID 0000.0001) %MON forcing_fv_sd                =   7.0965635133975E-02
(PID.TID 0000.0001) %MON forcing_fv_del2              =   5.8507702443781E-04
(PID.TID 0000.0001) %MON trAdv_CFL_u_max              =   1.5014536127115E-03
(PID.TID 0000.0001) %MON trAdv_CFL_v_max              =   1.3972624441818E-03
(PID.TID 0000.0001) %MON trAdv_CFL_w_max              =   1.6567286758699E-03
(PID.TID 0000.0001) %MON advcfl_uvel_max              =   1.4728888659021E-03
(PID.TID 0000.0001) %MON advcfl_vvel_max              =   1.4501077945341E-03
(PID.TID 0000.0001) %MON advcfl_wvel_max              =   2.5243225304977E-03
(PID.TID 0000.0001) %MON advcfl_W_hf_max              =   1.6567286758699E-03
(PID.TID 0000.0001) %MON pe_b_mean                    =   1.0498271133753E-05
(PID.TID 0000.0001) %MON ke_max                       =   1.2496892737022E-01
(PID.TID 0000.0001) %MON ke_mean                      =   2.7995173447712E-05
(PID.TID 0000.0001) %MON ke_vol                       =   1.3398178924553E+18
(PID.TID 0000.0001) %MON vort_r_min                   =  -2.3489915987136E-06
(PID.TID 0000.0001) %MON vort_r_max                   =   2.3069833832239E-06
(PID.TID 0000.0001) %MON vort_a_mean                  =  -2.0549865324846E-05
(PID.TID 0000.0001) %MON vort_a_sd                    =   7.5259438662795E-05
(PID.TID 0000.0001) %MON vort_p_mean                  =  -2.4783234432963E-05
(PID.TID 0000.0001) %MON vort_p_sd                    =   1.2810511619678E-04
(PID.TID 0000.0001) %MON surfExpan_theta_mean         =  -3.1097230581722E-07
(PID.TID 0000.0001) %MON surfExpan_salt_mean          =   8.4350759160859E-07
(PID.TID 0000.0001) // =======================================================
(PID.TID 0000.0001) // End MONITOR dynamic field statistics
(PID.TID 0000.0001) // =======================================================
(PID.TID 0000.0001) // =======================================================
(PID.TID 0000.0001) // Begin MONITOR SEAICE statistics
(PID.TID 0000.0001) // =======================================================
(PID.TID 0000.0001) %MON seaice_tsnumber              =                    77
(PID.TID 0000.0001) %MON seaice_time_sec              =   6.9300000000000E+04
(PID.TID 0000.0001) %MON seaice_uice_max              =   3.1330735672100E-01
(PID.TID 0000.0001) %MON seaice_uice_min              =  -4.6343451195912E-01
(PID.TID 0000.0001) %MON seaice_uice_mean             =  -4.3920169869774E-03
(PID.TID 0000.0001) %MON seaice_uice_sd               =   4.3043410965633E-02
(PID.TID 0000.0001) %MON seaice_uice_del2             =   7.7827527677837E-04
(PID.TID 0000.0001) %MON seaice_vice_max              =   2.6244251149376E-01
(PID.TID 0000.0001) %MON seaice_vice_min              =  -2.7828447540815E-01
(PID.TID 0000.0001) %MON seaice_vice_mean             =  -1.0973508302339E-02
(PID.TID 0000.0001) %MON seaice_vice_sd               =   3.8005576890199E-02
(PID.TID 0000.0001) %MON seaice_vice_del2             =   7.4576729966746E-04
(PID.TID 0000.0001) %MON seaice_area_max              =   9.8158552861881E-01
(PID.TID 0000.0001) %MON seaice_area_min              =   0.0000000000000E+00
(PID.TID 0000.0001) %MON seaice_area_mean             =   6.1630924413720E-02
(PID.TID 0000.0001) %MON seaice_area_sd               =   2.1681805708228E-01
(PID.TID 0000.0001) %MON seaice_area_del2             =   1.4685934536378E-03
(PID.TID 0000.0001) %MON seaice_heff_max              =   8.2368002469438E+00
(PID.TID 0000.0001) %MON seaice_heff_min              =   0.0000000000000E+00
(PID.TID 0000.0001) %MON seaice_heff_mean             =   1.9248672107721E-01
(PID.TID 0000.0001) %MON seaice_heff_sd               =   9.3965915082463E-01
(PID.TID 0000.0001) %MON seaice_heff_del2             =   6.1058403962815E-03
(PID.TID 0000.0001) %MON seaice_hsnow_max             =   1.9770462903769E+00
(PID.TID 0000.0001) %MON seaice_hsnow_min             =   0.0000000000000E+00
(PID.TID 0000.0001) %MON seaice_hsnow_mean            =   2.1369297539549E-02
(PID.TID 0000.0001) %MON seaice_hsnow_sd              =   1.1506550654059E-01
(PID.TID 0000.0001) %MON seaice_hsnow_del2            =   1.4149465562194E-03
(PID.TID 0000.0001) // =======================================================
(PID.TID 0000.0001) // End MONITOR SEAICE statistics
(PID.TID 0000.0001) // =======================================================
 Computing Diagnostic #    211  SIarea       Counter:       1   Parms: SM      M1      
 Computing Diagnostic #    214  SIheff       Counter:       1   Parms: SM      M1      
 Computing Diagnostic #    216  SIhsnow      Counter:       1   Parms: SM      M1      
 Computing Diagnostic #     83  sIceLoad     Counter:       1   Parms: SM      U1      
 Computing Diagnostic #    220  SIuice       Counter:       1   Parms: UU      M1      
           Vector  Mate for  SIuice       Diagnostic #    221  SIvice   exists 
 Computing Diagnostic #    221  SIvice       Counter:       1   Parms: VV      M1      
           Vector  Mate for  SIvice       Diagnostic #    220  SIuice   exists 
 Computing Diagnostic #    222  SItaux       Counter:       1   Parms: UU      U1      
           Vector  Mate for  SItaux       Diagnostic #    223  SItauy   exists 
 Computing Diagnostic #    223  SItauy       Counter:       1   Parms: VV      U1      
           Vector  Mate for  SItauy       Diagnostic #    222  SItaux   exists 
 Computing Diagnostic #    284  CPLoWGHT     Counter:       1   Parms: SM      M1      
 Computing Diagnostic #    282  SIareaN      Counter:       1   Parms: SM      MX      
 Computing Diagnostic #    281  SIheffN      Counter:       1   Parms: SM      MX      
 Computing Diagnostic #    283  SIhsnowN     Counter:       1   Parms: SM      MX      
 Computing Diagnostic #    287  SIqSnow      Counter:       1   Parms: SM      MX      
 Computing Diagnostic #    288  SImeltPd     Counter:       1   Parms: SM      MX      
 Computing Diagnostic #    285  SItIces      Counter:       1   Parms: SM      MX      
 Computing Diagnostic #    289  SIiceAge     Counter:       1   Parms: SM      MX      
 Computing Diagnostic #    290  SI_dArea     Counter:       1   Parms: SM      MX      
 Computing Diagnostic #    291  SI_dHeff     Counter:       1   Parms: SM      MX      
 Computing Diagnostic #    292  SI_dHsnw     Counter:       1   Parms: SM      MX      
 Computing Diagnostic #    295  SI_dQSnw     Counter:       1   Parms: SM      MX      
 Computing Diagnostic #    286  SIqIce       Counter:       1   Parms: SM      MX      
 Computing Diagnostic #    294  SI_dQIce     Counter:       1   Parms: SM      MX      
 SEAICE_LSR: Residual Initial ipass,Uice,Vice=    1  2.50001570E-03  1.80696329E-03
 SEAICE_LSR (ipass=   1) iters,dU,Resid=     4  1.77467213E-05  4.08363193E-05
 SEAICE_LSR (ipass=   1) iters,dV,Resid=     4  1.22517723E-05  4.04630707E-05
 SEAICE_LSR: Residual Initial ipass,Uice,Vice=    2  1.83487009E-03  1.24111081E-03
 SEAICE_LSR (ipass=   2) iters,dU,Resid=     4  1.11926496E-05  3.50056420E-05
 SEAICE_LSR (ipass=   2) iters,dV,Resid=     4  7.78018960E-06  2.53017566E-05
 cg2d: Sum(rhs),rhsMax =  -9.24889329105601E+01  4.00883556747385E+01
(PID.TID 0000.0001)      cg2d_init_res =   1.75961897793934E-01
(PID.TID 0000.0001)      cg2d_iters(min,last) =      -1      10
(PID.TID 0000.0001)      cg2d_last_res =   7.25189211688612E-08
(PID.TID 0000.0001) // =======================================================
(PID.TID 0000.0001) // Begin MONITOR dynamic field statistics
(PID.TID 0000.0001) // =======================================================
(PID.TID 0000.0001) %MON time_tsnumber                =                    78
(PID.TID 0000.0001) %MON time_secondsf                =   7.0200000000000E+04
(PID.TID 0000.0001) %MON dynstat_eta_max              =   1.7459989998616E+00
(PID.TID 0000.0001) %MON dynstat_eta_min              =  -1.6873160213465E+00
(PID.TID 0000.0001) %MON dynstat_eta_mean             =   4.3083322215140E-02
(PID.TID 0000.0001) %MON dynstat_eta_sd               =   7.7159248332618E-02
(PID.TID 0000.0001) %MON dynstat_eta_del2             =   1.4872739733474E-03
(PID.TID 0000.0001) %MON dynstat_uvel_max             =   3.1431942504607E-01
(PID.TID 0000.0001) %MON dynstat_uvel_min             =  -5.1360936888115E-01
(PID.TID 0000.0001) %MON dynstat_uvel_mean            =  -5.2569648385672E-05
(PID.TID 0000.0001) %MON dynstat_uvel_sd              =   5.6150393563988E-03
(PID.TID 0000.0001) %MON dynstat_uvel_del2            =   6.9911129885021E-05
(PID.TID 0000.0001) %MON dynstat_vvel_max             =   2.5094775050647E-01
(PID.TID 0000.0001) %MON dynstat_vvel_min             =  -3.3906785304156E-01
(PID.TID 0000.0001) %MON dynstat_vvel_mean            =   6.5591441833361E-04
(PID.TID 0000.0001) %MON dynstat_vvel_sd              =   5.4120267937006E-03
(PID.TID 0000.0001) %MON dynstat_vvel_del2            =   7.3089699290303E-05
(PID.TID 0000.0001) %MON dynstat_wvel_max             =   1.5082203956511E-04
(PID.TID 0000.0001) %MON dynstat_wvel_min             =  -1.5596594123907E-04
(PID.TID 0000.0001) %MON dynstat_wvel_mean            =  -1.5559606849152E-07
(PID.TID 0000.0001) %MON dynstat_wvel_sd              =   6.5214352723629E-06
(PID.TID 0000.0001) %MON dynstat_wvel_del2            =   7.6063129778137E-08
(PID.TID 0000.0001) %MON dynstat_theta_max            =   2.1958212619883E+01
(PID.TID 0000.0001) %MON dynstat_theta_min            =   1.6065871852471E+01
(PID.TID 0000.0001) %MON dynstat_theta_mean           =   1.9997941187466E+01
(PID.TID 0000.0001) %MON dynstat_theta_sd             =   2.6800486648343E-02
(PID.TID 0000.0001) %MON dynstat_theta_del2           =   3.7619473315926E-04
(PID.TID 0000.0001) %MON dynstat_salt_max             =   3.5078292248866E+01
(PID.TID 0000.0001) %MON dynstat_salt_min             =   2.8684064377645E+01
(PID.TID 0000.0001) %MON dynstat_salt_mean            =   3.4999581469793E+01
(PID.TID 0000.0001) %MON dynstat_salt_sd              =   3.1063595281843E-02
(PID.TID 0000.0001) %MON dynstat_salt_del2            =   8.1940180706879E-04
(PID.TID 0000.0001) %MON dynstat_sst_max              =   2.1958212619883E+01
(PID.TID 0000.0001) %MON dynstat_sst_min              =   1.6065871852471E+01
(PID.TID 0000.0001) %MON dynstat_sst_mean             =   2.0067356496107E+01
(PID.TID 0000.0001) %MON dynstat_sst_sd               =   1.9547991863258E-01
(PID.TID 0000.0001) %MON dynstat_sst_del2             =   4.4040232882076E-03
(PID.TID 0000.0001) %MON dynstat_sss_max              =   3.5078292248866E+01
(PID.TID 0000.0001) %MON dynstat_sss_min              =   2.8684064377645E+01
(PID.TID 0000.0001) %MON dynstat_sss_mean             =   3.4978811200888E+01
(PID.TID 0000.0001) %MON dynstat_sss_sd               =   2.6520956664167E-01
(PID.TID 0000.0001) %MON dynstat_sss_del2             =   1.0290752278517E-02
(PID.TID 0000.0001) %MON forcing_qnet_max             =   5.7231982421875E+03
(PID.TID 0000.0001) %MON forcing_qnet_min             =  -3.3111794433594E+03
(PID.TID 0000.0001) %MON forcing_qnet_mean            =  -2.6470895011886E+01
(PID.TID 0000.0001) %MON forcing_qnet_sd              =   4.6503011062714E+02
(PID.TID 0000.0001) %MON forcing_qnet_del2            =   5.8356053730579E+00
(PID.TID 0000.0001) %MON forcing_qsw_max              =   0.0000000000000E+00
(PID.TID 0000.0001) %MON forcing_qsw_min              =  -1.0907777578419E+02
(PID.TID 0000.0001) %MON forcing_qsw_mean             =  -1.8581546827486E+01
(PID.TID 0000.0001) %MON forcing_qsw_sd               =   2.7992040799783E+01
(PID.TID 0000.0001) %MON forcing_qsw_del2             =   1.4402159206140E-01
(PID.TID 0000.0001) %MON forcing_empmr_max            =   4.9975318834186E-03
(PID.TID 0000.0001) %MON forcing_empmr_min            =  -7.1826636791229E-02
(PID.TID 0000.0001) %MON forcing_empmr_mean           =  -3.6338649162876E-04
(PID.TID 0000.0001) %MON forcing_empmr_sd             =   3.1996107161723E-03
(PID.TID 0000.0001) %MON forcing_empmr_del2           =   1.2531798616257E-04
(PID.TID 0000.0001) %MON forcing_fu_max               =   5.3306343456235E-01
(PID.TID 0000.0001) %MON forcing_fu_min               =  -6.2427513830514E-01
(PID.TID 0000.0001) %MON forcing_fu_mean              =  -6.7442304975124E-04
(PID.TID 0000.0001) %MON forcing_fu_sd                =   8.3064651481653E-02
(PID.TID 0000.0001) %MON forcing_fu_del2              =   7.0396005482465E-04
(PID.TID 0000.0001) %MON forcing_fv_max               =   3.7723062390482E-01
(PID.TID 0000.0001) %MON forcing_fv_min               =  -3.5176184618848E-01
(PID.TID 0000.0001) %MON forcing_fv_mean              =  -6.7491846419680E-03
(PID.TID 0000.0001) %MON forcing_fv_sd                =   7.0931497664065E-02
(PID.TID 0000.0001) %MON forcing_fv_del2              =   5.8301775223176E-04
(PID.TID 0000.0001) %MON trAdv_CFL_u_max              =   1.4819340646328E-03
(PID.TID 0000.0001) %MON trAdv_CFL_v_max              =   1.4024932480657E-03
(PID.TID 0000.0001) %MON trAdv_CFL_w_max              =   1.5964684154604E-03
(PID.TID 0000.0001) %MON advcfl_uvel_max              =   1.4816808721897E-03
(PID.TID 0000.0001) %MON advcfl_vvel_max              =   1.4543581499103E-03
(PID.TID 0000.0001) %MON advcfl_wvel_max              =   2.4983178014341E-03
(PID.TID 0000.0001) %MON advcfl_W_hf_max              =   1.5964684154604E-03
(PID.TID 0000.0001) %MON pe_b_mean                    =   1.0403872405494E-05
(PID.TID 0000.0001) %MON ke_max                       =   1.2101819551453E-01
(PID.TID 0000.0001) %MON ke_mean                      =   2.8275514060545E-05
(PID.TID 0000.0001) %MON ke_vol                       =   1.3398180078284E+18
(PID.TID 0000.0001) %MON vort_r_min                   =  -2.3560558029088E-06
(PID.TID 0000.0001) %MON vort_r_max                   =   2.3054300655102E-06
(PID.TID 0000.0001) %MON vort_a_mean                  =  -2.0549865324846E-05
(PID.TID 0000.0001) %MON vort_a_sd                    =   7.5259433651431E-05
(PID.TID 0000.0001) %MON vort_p_mean                  =  -2.4783232208460E-05
(PID.TID 0000.0001) %MON vort_p_sd                    =   1.2810509991136E-04
(PID.TID 0000.0001) %MON surfExpan_theta_mean         =  -3.2381916227638E-07
(PID.TID 0000.0001) %MON surfExpan_salt_mean          =   8.3904207342227E-07
(PID.TID 0000.0001) // =======================================================
(PID.TID 0000.0001) // End MONITOR dynamic field statistics
(PID.TID 0000.0001) // =======================================================
(PID.TID 0000.0001) // =======================================================
(PID.TID 0000.0001) // Begin MONITOR SEAICE statistics
(PID.TID 0000.0001) // =======================================================
(PID.TID 0000.0001) %MON seaice_tsnumber              =                    78
(PID.TID 0000.0001) %MON seaice_time_sec              =   7.0200000000000E+04
(PID.TID 0000.0001) %MON seaice_uice_max              =   2.9631704137393E-01
(PID.TID 0000.0001) %MON seaice_uice_min              =  -4.3413266729846E-01
(PID.TID 0000.0001) %MON seaice_uice_mean             =  -4.4868547624174E-03
(PID.TID 0000.0001) %MON seaice_uice_sd               =   4.3153526518645E-02
(PID.TID 0000.0001) %MON seaice_uice_del2             =   7.7172668280421E-04
(PID.TID 0000.0001) %MON seaice_vice_max              =   2.6189832437332E-01
(PID.TID 0000.0001) %MON seaice_vice_min              =  -2.7941301937276E-01
(PID.TID 0000.0001) %MON seaice_vice_mean             =  -1.0772881402402E-02
(PID.TID 0000.0001) %MON seaice_vice_sd               =   3.8551115924196E-02
(PID.TID 0000.0001) %MON seaice_vice_del2             =   7.5353785919439E-04
(PID.TID 0000.0001) %MON seaice_area_max              =   9.8121182083292E-01
(PID.TID 0000.0001) %MON seaice_area_min              =   0.0000000000000E+00
(PID.TID 0000.0001) %MON seaice_area_mean             =   6.1541670025422E-02
(PID.TID 0000.0001) %MON seaice_area_sd               =   2.1657755889601E-01
(PID.TID 0000.0001) %MON seaice_area_del2             =   1.4648345178779E-03
(PID.TID 0000.0001) %MON seaice_heff_max              =   8.2341899568601E+00
(PID.TID 0000.0001) %MON seaice_heff_min              =   0.0000000000000E+00
(PID.TID 0000.0001) %MON seaice_heff_mean             =   1.9231775479818E-01
(PID.TID 0000.0001) %MON seaice_heff_sd               =   9.3917049979008E-01
(PID.TID 0000.0001) %MON seaice_heff_del2             =   6.1042760236664E-03
(PID.TID 0000.0001) %MON seaice_hsnow_max             =   1.9763315035948E+00
(PID.TID 0000.0001) %MON seaice_hsnow_min             =   0.0000000000000E+00
(PID.TID 0000.0001) %MON seaice_hsnow_mean            =   2.1349627259777E-02
(PID.TID 0000.0001) %MON seaice_hsnow_sd              =   1.1500497362424E-01
(PID.TID 0000.0001) %MON seaice_hsnow_del2            =   1.4143771648213E-03
(PID.TID 0000.0001) // =======================================================
(PID.TID 0000.0001) // End MONITOR SEAICE statistics
(PID.TID 0000.0001) // =======================================================
 SEAICE_LSR: Residual Initial ipass,Uice,Vice=    1  2.63804966E-03  1.83050724E-03
 SEAICE_LSR (ipass=   1) iters,dU,Resid=     4  1.63732380E-05  5.29662717E-05
 SEAICE_LSR (ipass=   1) iters,dV,Resid=     4  1.14251567E-05  3.82691248E-05
 SEAICE_LSR: Residual Initial ipass,Uice,Vice=    2  2.07749754E-03  1.31345173E-03
 SEAICE_LSR (ipass=   2) iters,dU,Resid=     4  1.10655701E-05  4.24333318E-05
 SEAICE_LSR (ipass=   2) iters,dV,Resid=     4  7.31812838E-06  2.44618623E-05
 cg2d: Sum(rhs),rhsMax =  -9.38266381245774E+01  3.98029250677504E+01
(PID.TID 0000.0001)      cg2d_init_res =   1.78598469963490E-01
(PID.TID 0000.0001)      cg2d_iters(min,last) =      -1      10
(PID.TID 0000.0001)      cg2d_last_res =   8.16299698992960E-08
(PID.TID 0000.0001) // =======================================================
(PID.TID 0000.0001) // Begin MONITOR dynamic field statistics
(PID.TID 0000.0001) // =======================================================
(PID.TID 0000.0001) %MON time_tsnumber                =                    79
(PID.TID 0000.0001) %MON time_secondsf                =   7.1100000000000E+04
(PID.TID 0000.0001) %MON dynstat_eta_max              =   1.7335938060139E+00
(PID.TID 0000.0001) %MON dynstat_eta_min              =  -1.5390386223856E+00
(PID.TID 0000.0001) %MON dynstat_eta_mean             =   4.3395262298765E-02
(PID.TID 0000.0001) %MON dynstat_eta_sd               =   7.6383554679504E-02
(PID.TID 0000.0001) %MON dynstat_eta_del2             =   1.4400095538052E-03
(PID.TID 0000.0001) %MON dynstat_uvel_max             =   3.3092146663405E-01
(PID.TID 0000.0001) %MON dynstat_uvel_min             =  -5.2775048749362E-01
(PID.TID 0000.0001) %MON dynstat_uvel_mean            =  -6.3486834500782E-05
(PID.TID 0000.0001) %MON dynstat_uvel_sd              =   5.6177520598347E-03
(PID.TID 0000.0001) %MON dynstat_uvel_del2            =   6.9720107971188E-05
(PID.TID 0000.0001) %MON dynstat_vvel_max             =   2.3902727107168E-01
(PID.TID 0000.0001) %MON dynstat_vvel_min             =  -3.7490113998578E-01
(PID.TID 0000.0001) %MON dynstat_vvel_mean            =   6.2746335063939E-04
(PID.TID 0000.0001) %MON dynstat_vvel_sd              =   5.4723553954640E-03
(PID.TID 0000.0001) %MON dynstat_vvel_del2            =   7.4014726681822E-05
(PID.TID 0000.0001) %MON dynstat_wvel_max             =   1.5067805885487E-04
(PID.TID 0000.0001) %MON dynstat_wvel_min             =  -1.5014750683913E-04
(PID.TID 0000.0001) %MON dynstat_wvel_mean            =  -1.4502585076454E-07
(PID.TID 0000.0001) %MON dynstat_wvel_sd              =   6.4821407392314E-06
(PID.TID 0000.0001) %MON dynstat_wvel_del2            =   7.5868309515589E-08
(PID.TID 0000.0001) %MON dynstat_theta_max            =   2.1973481299422E+01
(PID.TID 0000.0001) %MON dynstat_theta_min            =   1.6066092271012E+01
(PID.TID 0000.0001) %MON dynstat_theta_mean           =   1.9997942806306E+01
(PID.TID 0000.0001) %MON dynstat_theta_sd             =   2.6921243608571E-02
(PID.TID 0000.0001) %MON dynstat_theta_del2           =   3.7723353741783E-04
(PID.TID 0000.0001) %MON dynstat_salt_max             =   3.5078288329356E+01
(PID.TID 0000.0001) %MON dynstat_salt_min             =   2.8654234838658E+01
(PID.TID 0000.0001) %MON dynstat_salt_mean            =   3.4999578772297E+01
(PID.TID 0000.0001) %MON dynstat_salt_sd              =   3.1216270817788E-02
(PID.TID 0000.0001) %MON dynstat_salt_del2            =   8.2309253082621E-04
(PID.TID 0000.0001) %MON dynstat_sst_max              =   2.1973481299422E+01
(PID.TID 0000.0001) %MON dynstat_sst_min              =   1.6066092271012E+01
(PID.TID 0000.0001) %MON dynstat_sst_mean             =   2.0068122397472E+01
(PID.TID 0000.0001) %MON dynstat_sst_sd               =   1.9632779790640E-01
(PID.TID 0000.0001) %MON dynstat_sst_del2             =   4.4173315551122E-03
(PID.TID 0000.0001) %MON dynstat_sss_max              =   3.5078288329356E+01
(PID.TID 0000.0001) %MON dynstat_sss_min              =   2.8654234838658E+01
(PID.TID 0000.0001) %MON dynstat_sss_mean             =   3.4978678576539E+01
(PID.TID 0000.0001) %MON dynstat_sss_sd               =   2.6651839309903E-01
(PID.TID 0000.0001) %MON dynstat_sss_del2             =   1.0337118991811E-02
(PID.TID 0000.0001) %MON forcing_qnet_max             =   2.7731535644531E+03
(PID.TID 0000.0001) %MON forcing_qnet_min             =  -3.2712919921875E+03
(PID.TID 0000.0001) %MON forcing_qnet_mean            =  -2.6566718062340E+01
(PID.TID 0000.0001) %MON forcing_qnet_sd              =   4.6006624530314E+02
(PID.TID 0000.0001) %MON forcing_qnet_del2            =   5.7107446326058E+00
(PID.TID 0000.0001) %MON forcing_qsw_max              =   0.0000000000000E+00
(PID.TID 0000.0001) %MON forcing_qsw_min              =  -1.0877281297208E+02
(PID.TID 0000.0001) %MON forcing_qsw_mean             =  -1.8694367577466E+01
(PID.TID 0000.0001) %MON forcing_qsw_sd               =   2.7932534690394E+01
(PID.TID 0000.0001) %MON forcing_qsw_del2             =   1.4482430110684E-01
(PID.TID 0000.0001) %MON forcing_empmr_max            =   4.9461652524769E-03
(PID.TID 0000.0001) %MON forcing_empmr_min            =  -7.1086570620537E-02
(PID.TID 0000.0001) %MON forcing_empmr_mean           =  -3.5873109616926E-04
(PID.TID 0000.0001) %MON forcing_empmr_sd             =   3.1679042571771E-03
(PID.TID 0000.0001) %MON forcing_empmr_del2           =   1.2403165594919E-04
(PID.TID 0000.0001) %MON forcing_fu_max               =   5.2962732060236E-01
(PID.TID 0000.0001) %MON forcing_fu_min               =  -6.2074130425582E-01
(PID.TID 0000.0001) %MON forcing_fu_mean              =  -7.1230906765595E-04
(PID.TID 0000.0001) %MON forcing_fu_sd                =   8.2628855163616E-02
(PID.TID 0000.0001) %MON forcing_fu_del2              =   7.0112789235879E-04
(PID.TID 0000.0001) %MON forcing_fv_max               =   3.7571485155431E-01
(PID.TID 0000.0001) %MON forcing_fv_min               =  -3.4680524622571E-01
(PID.TID 0000.0001) %MON forcing_fv_mean              =  -6.7211986983003E-03
(PID.TID 0000.0001) %MON forcing_fv_sd                =   7.0945234458247E-02
(PID.TID 0000.0001) %MON forcing_fv_del2              =   5.8126528984002E-04
(PID.TID 0000.0001) %MON trAdv_CFL_u_max              =   1.5234334696693E-03
(PID.TID 0000.0001) %MON trAdv_CFL_v_max              =   1.4072914688452E-03
(PID.TID 0000.0001) %MON trAdv_CFL_w_max              =   1.5369672375475E-03
(PID.TID 0000.0001) %MON advcfl_uvel_max              =   1.5224757373712E-03
(PID.TID 0000.0001) %MON advcfl_vvel_max              =   1.4583299719089E-03
(PID.TID 0000.0001) %MON advcfl_wvel_max              =   2.4725763694100E-03
(PID.TID 0000.0001) %MON advcfl_W_hf_max              =   1.5369672375475E-03
(PID.TID 0000.0001) %MON pe_b_mean                    =   1.0281144037699E-05
(PID.TID 0000.0001) %MON ke_max                       =   1.1686399682144E-01
(PID.TID 0000.0001) %MON ke_mean                      =   2.8577814138369E-05
(PID.TID 0000.0001) %MON ke_vol                       =   1.3398181228123E+18
(PID.TID 0000.0001) %MON vort_r_min                   =  -2.3637945078502E-06
(PID.TID 0000.0001) %MON vort_r_max                   =   2.3071357145687E-06
(PID.TID 0000.0001) %MON vort_a_mean                  =  -2.0549865324846E-05
(PID.TID 0000.0001) %MON vort_a_sd                    =   7.5259428860270E-05
(PID.TID 0000.0001) %MON vort_p_mean                  =  -2.4783230004060E-05
(PID.TID 0000.0001) %MON vort_p_sd                    =   1.2810508589845E-04
(PID.TID 0000.0001) %MON surfExpan_theta_mean         =  -3.3398597499839E-07
(PID.TID 0000.0001) %MON surfExpan_salt_mean          =   8.3398736679003E-07
(PID.TID 0000.0001) // =======================================================
(PID.TID 0000.0001) // End MONITOR dynamic field statistics
(PID.TID 0000.0001) // =======================================================
(PID.TID 0000.0001) // =======================================================
(PID.TID 0000.0001) // Begin MONITOR SEAICE statistics
(PID.TID 0000.0001) // =======================================================
(PID.TID 0000.0001) %MON seaice_tsnumber              =                    79
(PID.TID 0000.0001) %MON seaice_time_sec              =   7.1100000000000E+04
(PID.TID 0000.0001) %MON seaice_uice_max              =   3.1619155099087E-01
(PID.TID 0000.0001) %MON seaice_uice_min              =  -4.0358463491557E-01
(PID.TID 0000.0001) %MON seaice_uice_mean             =  -4.5889406649772E-03
(PID.TID 0000.0001) %MON seaice_uice_sd               =   4.3245943137574E-02
(PID.TID 0000.0001) %MON seaice_uice_del2             =   7.6736660267411E-04
(PID.TID 0000.0001) %MON seaice_vice_max              =   2.5872363326224E-01
(PID.TID 0000.0001) %MON seaice_vice_min              =  -3.2075799722448E-01
(PID.TID 0000.0001) %MON seaice_vice_mean             =  -1.0561263213669E-02
(PID.TID 0000.0001) %MON seaice_vice_sd               =   3.9174214116050E-02
(PID.TID 0000.0001) %MON seaice_vice_del2             =   7.6324871475946E-04
(PID.TID 0000.0001) %MON seaice_area_max              =   9.8083647476823E-01
(PID.TID 0000.0001) %MON seaice_area_min              =   0.0000000000000E+00
(PID.TID 0000.0001) %MON seaice_area_mean             =   6.1452516257044E-02
(PID.TID 0000.0001) %MON seaice_area_sd               =   2.1633735791252E-01
(PID.TID 0000.0001) %MON seaice_area_del2             =   1.4610824476188E-03
(PID.TID 0000.0001) %MON seaice_heff_max              =   8.2315794311944E+00
(PID.TID 0000.0001) %MON seaice_heff_min              =   0.0000000000000E+00
(PID.TID 0000.0001) %MON seaice_heff_mean             =   1.9214894240188E-01
(PID.TID 0000.0001) %MON seaice_heff_sd               =   9.3868191153230E-01
(PID.TID 0000.0001) %MON seaice_heff_del2             =   6.1027083982443E-03
(PID.TID 0000.0001) %MON seaice_hsnow_max             =   1.9756015837918E+00
(PID.TID 0000.0001) %MON seaice_hsnow_min             =   0.0000000000000E+00
(PID.TID 0000.0001) %MON seaice_hsnow_mean            =   2.1329991441897E-02
(PID.TID 0000.0001) %MON seaice_hsnow_sd              =   1.1494440321230E-01
(PID.TID 0000.0001) %MON seaice_hsnow_del2            =   1.4138022239844E-03
(PID.TID 0000.0001) // =======================================================
(PID.TID 0000.0001) // End MONITOR SEAICE statistics
(PID.TID 0000.0001) // =======================================================
 SEAICE_LSR: Residual Initial ipass,Uice,Vice=    1  2.87648317E-03  1.85783021E-03
 SEAICE_LSR (ipass=   1) iters,dU,Resid=     4  2.96849977E-05  6.61175737E-05
 SEAICE_LSR (ipass=   1) iters,dV,Resid=     4  1.04625008E-05  3.55306732E-05
 SEAICE_LSR: Residual Initial ipass,Uice,Vice=    2  2.41390563E-03  1.38692715E-03
 SEAICE_LSR (ipass=   2) iters,dU,Resid=     4  1.32458821E-05  5.02660646E-05
 SEAICE_LSR (ipass=   2) iters,dV,Resid=     4  6.69981079E-06  2.30885559E-05
 cg2d: Sum(rhs),rhsMax =  -9.55886563589250E+01  3.93478397341232E+01
(PID.TID 0000.0001)      cg2d_init_res =   1.82477304016544E-01
(PID.TID 0000.0001)      cg2d_iters(min,last) =      -1      10
(PID.TID 0000.0001)      cg2d_last_res =   8.57323087994787E-08
(PID.TID 0000.0001) // =======================================================
(PID.TID 0000.0001) // Begin MONITOR dynamic field statistics
(PID.TID 0000.0001) // =======================================================
(PID.TID 0000.0001) %MON time_tsnumber                =                    80
(PID.TID 0000.0001) %MON time_secondsf                =   7.2000000000000E+04
(PID.TID 0000.0001) %MON dynstat_eta_max              =   1.7138321213454E+00
(PID.TID 0000.0001) %MON dynstat_eta_min              =  -1.3733389292854E+00
(PID.TID 0000.0001) %MON dynstat_eta_mean             =   4.3704728234247E-02
(PID.TID 0000.0001) %MON dynstat_eta_sd               =   7.5507023748302E-02
(PID.TID 0000.0001) %MON dynstat_eta_del2             =   1.3862633109775E-03
(PID.TID 0000.0001) %MON dynstat_uvel_max             =   3.4417708153605E-01
(PID.TID 0000.0001) %MON dynstat_uvel_min             =  -5.4020500337744E-01
(PID.TID 0000.0001) %MON dynstat_uvel_mean            =  -7.4455678242320E-05
(PID.TID 0000.0001) %MON dynstat_uvel_sd              =   5.6183537971183E-03
(PID.TID 0000.0001) %MON dynstat_uvel_del2            =   6.9657484341617E-05
(PID.TID 0000.0001) %MON dynstat_vvel_max             =   2.6414024538000E-01
(PID.TID 0000.0001) %MON dynstat_vvel_min             =  -4.0369223844101E-01
(PID.TID 0000.0001) %MON dynstat_vvel_mean            =   5.9968554775418E-04
(PID.TID 0000.0001) %MON dynstat_vvel_sd              =   5.5357405371647E-03
(PID.TID 0000.0001) %MON dynstat_vvel_del2            =   7.4924841918049E-05
(PID.TID 0000.0001) %MON dynstat_wvel_max             =   1.5023041469860E-04
(PID.TID 0000.0001) %MON dynstat_wvel_min             =  -1.4441277018330E-04
(PID.TID 0000.0001) %MON dynstat_wvel_mean            =  -1.3581606391120E-07
(PID.TID 0000.0001) %MON dynstat_wvel_sd              =   6.4396969732510E-06
(PID.TID 0000.0001) %MON dynstat_wvel_del2            =   7.5630197124082E-08
(PID.TID 0000.0001) %MON dynstat_theta_max            =   2.1988559499690E+01
(PID.TID 0000.0001) %MON dynstat_theta_min            =   1.6066749069185E+01
(PID.TID 0000.0001) %MON dynstat_theta_mean           =   1.9997944410795E+01
(PID.TID 0000.0001) %MON dynstat_theta_sd             =   2.7042027477053E-02
(PID.TID 0000.0001) %MON dynstat_theta_del2           =   3.7834440434167E-04
(PID.TID 0000.0001) %MON dynstat_salt_max             =   3.5078284653807E+01
(PID.TID 0000.0001) %MON dynstat_salt_min             =   2.8625022210987E+01
(PID.TID 0000.0001) %MON dynstat_salt_mean            =   3.4999576109803E+01
(PID.TID 0000.0001) %MON dynstat_salt_sd              =   3.1365971794611E-02
(PID.TID 0000.0001) %MON dynstat_salt_del2            =   8.2670763281376E-04
(PID.TID 0000.0001) %MON dynstat_sst_max              =   2.1988559499690E+01
(PID.TID 0000.0001) %MON dynstat_sst_min              =   1.6066749069185E+01
(PID.TID 0000.0001) %MON dynstat_sst_mean             =   2.0068866471579E+01
(PID.TID 0000.0001) %MON dynstat_sst_sd               =   1.9718155734413E-01
(PID.TID 0000.0001) %MON dynstat_sst_del2             =   4.4317188324300E-03
(PID.TID 0000.0001) %MON dynstat_sss_max              =   3.5078284653807E+01
(PID.TID 0000.0001) %MON dynstat_sss_min              =   2.8625022210987E+01
(PID.TID 0000.0001) %MON dynstat_sss_mean             =   3.4978542011152E+01
(PID.TID 0000.0001) %MON dynstat_sss_sd               =   2.6780134647510E-01
(PID.TID 0000.0001) %MON dynstat_sss_del2             =   1.0382543985384E-02
(PID.TID 0000.0001) %MON forcing_qnet_max             =   2.7413229980469E+03
(PID.TID 0000.0001) %MON forcing_qnet_min             =  -3.2318908691406E+03
(PID.TID 0000.0001) %MON forcing_qnet_mean            =  -2.6345358397016E+01
(PID.TID 0000.0001) %MON forcing_qnet_sd              =   4.5755241785410E+02
(PID.TID 0000.0001) %MON forcing_qnet_del2            =   5.7006472341653E+00
(PID.TID 0000.0001) %MON forcing_qsw_max              =   0.0000000000000E+00
(PID.TID 0000.0001) %MON forcing_qsw_min              =  -1.0802551320912E+02
(PID.TID 0000.0001) %MON forcing_qsw_mean             =  -1.8751757709810E+01
(PID.TID 0000.0001) %MON forcing_qsw_sd               =   2.7853930541367E+01
(PID.TID 0000.0001) %MON forcing_qsw_del2             =   1.4534323047337E-01
(PID.TID 0000.0001) %MON forcing_empmr_max            =   4.8952903598547E-03
(PID.TID 0000.0001) %MON forcing_empmr_min            =  -7.0354044437408E-02
(PID.TID 0000.0001) %MON forcing_empmr_mean           =  -3.5588582580358E-04
(PID.TID 0000.0001) %MON forcing_empmr_sd             =   3.1364141698686E-03
(PID.TID 0000.0001) %MON forcing_empmr_del2           =   1.2275869611559E-04
(PID.TID 0000.0001) %MON forcing_fu_max               =   5.2923487278351E-01
(PID.TID 0000.0001) %MON forcing_fu_min               =  -6.1720222575076E-01
(PID.TID 0000.0001) %MON forcing_fu_mean              =  -7.4585660871973E-04
(PID.TID 0000.0001) %MON forcing_fu_sd                =   8.2209708202421E-02
(PID.TID 0000.0001) %MON forcing_fu_del2              =   6.9857577465035E-04
(PID.TID 0000.0001) %MON forcing_fv_max               =   3.7363360766262E-01
(PID.TID 0000.0001) %MON forcing_fv_min               =  -3.4201238141107E-01
(PID.TID 0000.0001) %MON forcing_fv_mean              =  -6.6925692311964E-03
(PID.TID 0000.0001) %MON forcing_fv_sd                =   7.0990733387690E-02
(PID.TID 0000.0001) %MON forcing_fv_del2              =   5.7957294182832E-04
(PID.TID 0000.0001) %MON trAdv_CFL_u_max              =   1.5601666485664E-03
(PID.TID 0000.0001) %MON trAdv_CFL_v_max              =   1.4116210341327E-03
(PID.TID 0000.0001) %MON trAdv_CFL_w_max              =   1.4784766091632E-03
(PID.TID 0000.0001) %MON advcfl_uvel_max              =   1.5584050234697E-03
(PID.TID 0000.0001) %MON advcfl_vvel_max              =   1.4619700982842E-03
(PID.TID 0000.0001) %MON advcfl_wvel_max              =   2.4470971978229E-03
(PID.TID 0000.0001) %MON advcfl_W_hf_max              =   1.4784766091632E-03
(PID.TID 0000.0001) %MON pe_b_mean                    =   1.0139690374709E-05
(PID.TID 0000.0001) %MON ke_max                       =   1.1260938685409E-01
(PID.TID 0000.0001) %MON ke_mean                      =   2.8889533768274E-05
(PID.TID 0000.0001) %MON ke_vol                       =   1.3398182363232E+18
(PID.TID 0000.0001) %MON vort_r_min                   =  -2.3719875436915E-06
(PID.TID 0000.0001) %MON vort_r_max                   =   2.3118132355441E-06
(PID.TID 0000.0001) %MON vort_a_mean                  =  -2.0549865324846E-05
(PID.TID 0000.0001) %MON vort_a_sd                    =   7.5259424348367E-05
(PID.TID 0000.0001) %MON vort_p_mean                  =  -2.4783227843654E-05
(PID.TID 0000.0001) %MON vort_p_sd                    =   1.2810507450623E-04
(PID.TID 0000.0001) %MON surfExpan_theta_mean         =  -3.4129976196150E-07
(PID.TID 0000.0001) %MON surfExpan_salt_mean          =   8.2832018794574E-07
(PID.TID 0000.0001) // =======================================================
(PID.TID 0000.0001) // End MONITOR dynamic field statistics
(PID.TID 0000.0001) // =======================================================
(PID.TID 0000.0001) // =======================================================
(PID.TID 0000.0001) // Begin MONITOR SEAICE statistics
(PID.TID 0000.0001) // =======================================================
(PID.TID 0000.0001) %MON seaice_tsnumber              =                    80
(PID.TID 0000.0001) %MON seaice_time_sec              =   7.2000000000000E+04
(PID.TID 0000.0001) %MON seaice_uice_max              =   3.3299262785029E-01
(PID.TID 0000.0001) %MON seaice_uice_min              =  -3.7595256628034E-01
(PID.TID 0000.0001) %MON seaice_uice_mean             =  -4.7029428379557E-03
(PID.TID 0000.0001) %MON seaice_uice_sd               =   4.3312788325073E-02
(PID.TID 0000.0001) %MON seaice_uice_del2             =   7.6474018766894E-04
(PID.TID 0000.0001) %MON seaice_vice_max              =   2.5287089894653E-01
(PID.TID 0000.0001) %MON seaice_vice_min              =  -3.5867395381111E-01
(PID.TID 0000.0001) %MON seaice_vice_mean             =  -1.0342485153446E-02
(PID.TID 0000.0001) %MON seaice_vice_sd               =   3.9857367987456E-02
(PID.TID 0000.0001) %MON seaice_vice_del2             =   7.7410879115622E-04
(PID.TID 0000.0001) %MON seaice_area_max              =   9.8045962563473E-01
(PID.TID 0000.0001) %MON seaice_area_min              =   0.0000000000000E+00
(PID.TID 0000.0001) %MON seaice_area_mean             =   6.1363460445447E-02
(PID.TID 0000.0001) %MON seaice_area_sd               =   2.1609746109045E-01
(PID.TID 0000.0001) %MON seaice_area_del2             =   1.4573416815619E-03
(PID.TID 0000.0001) %MON seaice_heff_max              =   8.2289686730789E+00
(PID.TID 0000.0001) %MON seaice_heff_min              =   0.0000000000000E+00
(PID.TID 0000.0001) %MON seaice_heff_mean             =   1.9198029670062E-01
(PID.TID 0000.0001) %MON seaice_heff_sd               =   9.3819336967646E-01
(PID.TID 0000.0001) %MON seaice_heff_del2             =   6.1011307743653E-03
(PID.TID 0000.0001) %MON seaice_hsnow_max             =   1.9748806643206E+00
(PID.TID 0000.0001) %MON seaice_hsnow_min             =   0.0000000000000E+00
(PID.TID 0000.0001) %MON seaice_hsnow_mean            =   2.1310484881311E-02
(PID.TID 0000.0001) %MON seaice_hsnow_sd              =   1.1488410260724E-01
(PID.TID 0000.0001) %MON seaice_hsnow_del2            =   1.4132230349266E-03
(PID.TID 0000.0001) // =======================================================
(PID.TID 0000.0001) // End MONITOR SEAICE statistics
(PID.TID 0000.0001) // =======================================================
 Compute Stats, Diag. #    211  SIarea    vol(   0 ): 1.456E+15  Parms: SM      M1      
 Compute Stats, Diag. #    214  SIheff    vol(   0 ): 1.456E+15  Parms: SM      M1      
 Compute Stats, Diag. #    216  SIhsnow   vol(   0 ): 1.456E+15  Parms: SM      M1      
 Compute Stats, Diag. #     83  sIceLoad  vol(   0 ): 1.456E+15  Parms: SM      U1      
 Compute Stats, Diag. #    220  SIuice    vol(   0 ): 1.383E+15  Parms: UU      M1      
 Compute Stats, Diag. #    221  SIvice    vol(   0 ): 1.391E+15  Parms: VV      M1      
 Compute Stats, Diag. #    222  SItaux    vol(   0 ): 1.383E+15  Parms: UU      U1      
 Compute Stats, Diag. #    223  SItauy    vol(   0 ): 1.391E+15  Parms: VV      U1      
 Compute Stats, Diag. #    282  SIareaN   vol(   0 ): 7.278E+15  Parms: SM      MX      
 Compute Stats, Diag. #    281  SIheffN   vol(   0 ): 7.278E+15  Parms: SM      MX      
 Compute Stats, Diag. #    283  SIhsnowN  vol(   0 ): 7.278E+15  Parms: SM      MX      
 Compute Stats, Diag. #    287  SIqSnow   vol(   0 ): 7.278E+15  Parms: SM      MX      
 Compute Stats, Diag. #    286  SIqIce    vol(   0 ): 2.911E+16  Parms: SM      MX      
 Compute Stats, Diag. #    288  SImeltPd  vol(   0 ): 7.278E+15  Parms: SM      MX      
 Compute Stats, Diag. #    285  SItIces   vol(   0 ): 7.278E+15  Parms: SM      MX      
 Compute Stats, Diag. #    289  SIiceAge  vol(   0 ): 7.278E+15  Parms: SM      MX      
 Compute Stats, Diag. #    290  SI_dArea  vol(   0 ): 7.278E+15  Parms: SM      MX      
 Compute Stats, Diag. #    291  SI_dHeff  vol(   0 ): 7.278E+15  Parms: SM      MX      
 Compute Stats, Diag. #    292  SI_dHsnw  vol(   0 ): 7.278E+15  Parms: SM      MX      
 Compute Stats, Diag. #    295  SI_dQSnw  vol(   0 ): 7.278E+15  Parms: SM      MX      
 Compute Stats, Diag. #    294  SI_dQIce  vol(   0 ): 2.911E+16  Parms: SM      MX      
 SEAICE_LSR: Residual Initial ipass,Uice,Vice=    1  3.19334531E-03  1.88334984E-03
 SEAICE_LSR (ipass=   1) iters,dU,Resid=     4  3.85599380E-05  8.11669700E-05
 SEAICE_LSR (ipass=   1) iters,dV,Resid=     4  9.92134452E-06  3.19149517E-05
 SEAICE_LSR: Residual Initial ipass,Uice,Vice=    2  2.73005279E-03  1.47096164E-03
 SEAICE_LSR (ipass=   2) iters,dU,Resid=     4  1.56270868E-05  5.86681611E-05
 SEAICE_LSR (ipass=   2) iters,dV,Resid=     4  6.05588932E-06  2.13815682E-05
 cg2d: Sum(rhs),rhsMax =  -9.78116109321696E+01  3.87245238803631E+01
(PID.TID 0000.0001)      cg2d_init_res =   1.87314543258701E-01
(PID.TID 0000.0001)      cg2d_iters(min,last) =      -1      10
(PID.TID 0000.0001)      cg2d_last_res =   8.62532418421647E-08
(PID.TID 0000.0001) // =======================================================
(PID.TID 0000.0001) // Begin MONITOR dynamic field statistics
(PID.TID 0000.0001) // =======================================================
(PID.TID 0000.0001) %MON time_tsnumber                =                    81
(PID.TID 0000.0001) %MON time_secondsf                =   7.2900000000000E+04
(PID.TID 0000.0001) %MON dynstat_eta_max              =   1.6867762357839E+00
(PID.TID 0000.0001) %MON dynstat_eta_min              =  -1.1934853984851E+00
(PID.TID 0000.0001) %MON dynstat_eta_mean             =   4.4012665556748E-02
(PID.TID 0000.0001) %MON dynstat_eta_sd               =   7.4573399930320E-02
(PID.TID 0000.0001) %MON dynstat_eta_del2             =   1.3286130797017E-03
(PID.TID 0000.0001) %MON dynstat_uvel_max             =   3.5389086389660E-01
(PID.TID 0000.0001) %MON dynstat_uvel_min             =  -5.5084200543630E-01
(PID.TID 0000.0001) %MON dynstat_uvel_mean            =  -8.5303325026607E-05
(PID.TID 0000.0001) %MON dynstat_uvel_sd              =   5.6166359392015E-03
(PID.TID 0000.0001) %MON dynstat_uvel_del2            =   6.9702698169171E-05
(PID.TID 0000.0001) %MON dynstat_vvel_max             =   2.9004367191086E-01
(PID.TID 0000.0001) %MON dynstat_vvel_min             =  -4.2525359015520E-01
(PID.TID 0000.0001) %MON dynstat_vvel_mean            =   5.7285249168860E-04
(PID.TID 0000.0001) %MON dynstat_vvel_sd              =   5.5997281843925E-03
(PID.TID 0000.0001) %MON dynstat_vvel_del2            =   7.5728258157842E-05
(PID.TID 0000.0001) %MON dynstat_wvel_max             =   1.4950400703372E-04
(PID.TID 0000.0001) %MON dynstat_wvel_min             =  -1.3878509644757E-04
(PID.TID 0000.0001) %MON dynstat_wvel_mean            =  -1.2789145014465E-07
(PID.TID 0000.0001) %MON dynstat_wvel_sd              =   6.3949739724239E-06
(PID.TID 0000.0001) %MON dynstat_wvel_del2            =   7.5347649253049E-08
(PID.TID 0000.0001) %MON dynstat_theta_max            =   2.2003439574435E+01
(PID.TID 0000.0001) %MON dynstat_theta_min            =   1.6067803551061E+01
(PID.TID 0000.0001) %MON dynstat_theta_mean           =   1.9997946081496E+01
(PID.TID 0000.0001) %MON dynstat_theta_sd             =   2.7163168509588E-02
(PID.TID 0000.0001) %MON dynstat_theta_del2           =   3.7946641508275E-04
(PID.TID 0000.0001) %MON dynstat_salt_max             =   3.5078281002488E+01
(PID.TID 0000.0001) %MON dynstat_salt_min             =   2.8596412405333E+01
(PID.TID 0000.0001) %MON dynstat_salt_mean            =   3.4999573471716E+01
(PID.TID 0000.0001) %MON dynstat_salt_sd              =   3.1512791235034E-02
(PID.TID 0000.0001) %MON dynstat_salt_del2            =   8.3024101062693E-04
(PID.TID 0000.0001) %MON dynstat_sst_max              =   2.2003439574435E+01
(PID.TID 0000.0001) %MON dynstat_sst_min              =   1.6067803551061E+01
(PID.TID 0000.0001) %MON dynstat_sst_mean             =   2.0069610950949E+01
(PID.TID 0000.0001) %MON dynstat_sst_sd               =   1.9803544819721E-01
(PID.TID 0000.0001) %MON dynstat_sst_del2             =   4.4462387102364E-03
(PID.TID 0000.0001) %MON dynstat_sss_max              =   3.5078281002488E+01
(PID.TID 0000.0001) %MON dynstat_sss_min              =   2.8596412405333E+01
(PID.TID 0000.0001) %MON dynstat_sss_mean             =   3.4978407789673E+01
(PID.TID 0000.0001) %MON dynstat_sss_sd               =   2.6905944378145E-01
(PID.TID 0000.0001) %MON dynstat_sss_del2             =   1.0426943326236E-02
(PID.TID 0000.0001) %MON forcing_qnet_max             =   2.7098754882812E+03
(PID.TID 0000.0001) %MON forcing_qnet_min             =  -3.1910622558594E+03
(PID.TID 0000.0001) %MON forcing_qnet_mean            =  -2.7486814166554E+01
(PID.TID 0000.0001) %MON forcing_qnet_sd              =   4.5491931542296E+02
(PID.TID 0000.0001) %MON forcing_qnet_del2            =   5.6168598818005E+00
(PID.TID 0000.0001) %MON forcing_qsw_max              =   0.0000000000000E+00
(PID.TID 0000.0001) %MON forcing_qsw_min              =  -1.0549583657710E+02
(PID.TID 0000.0001) %MON forcing_qsw_mean             =  -1.9016483631605E+01
(PID.TID 0000.0001) %MON forcing_qsw_sd               =   2.7914703641374E+01
(PID.TID 0000.0001) %MON forcing_qsw_del2             =   1.4493291505462E-01
(PID.TID 0000.0001) %MON forcing_empmr_max            =   4.8449076712132E-03
(PID.TID 0000.0001) %MON forcing_empmr_min            =  -6.9629915058613E-02
(PID.TID 0000.0001) %MON forcing_empmr_mean           =  -3.5412792087661E-04
(PID.TID 0000.0001) %MON forcing_empmr_sd             =   3.1052110941879E-03
(PID.TID 0000.0001) %MON forcing_empmr_del2           =   1.2150225627489E-04
(PID.TID 0000.0001) %MON forcing_fu_max               =   5.2877663144646E-01
(PID.TID 0000.0001) %MON forcing_fu_min               =  -6.1369721501685E-01
(PID.TID 0000.0001) %MON forcing_fu_mean              =  -7.9432228263855E-04
(PID.TID 0000.0001) %MON forcing_fu_sd                =   8.1768140376287E-02
(PID.TID 0000.0001) %MON forcing_fu_del2              =   6.9585961107902E-04
(PID.TID 0000.0001) %MON forcing_fv_max               =   3.7088003308989E-01
(PID.TID 0000.0001) %MON forcing_fv_min               =  -3.3709937991716E-01
(PID.TID 0000.0001) %MON forcing_fv_mean              =  -6.6524558688614E-03
(PID.TID 0000.0001) %MON forcing_fv_sd                =   7.1005841231189E-02
(PID.TID 0000.0001) %MON forcing_fv_del2              =   5.7770637640880E-04
(PID.TID 0000.0001) %MON trAdv_CFL_u_max              =   1.5917520013346E-03
(PID.TID 0000.0001) %MON trAdv_CFL_v_max              =   1.4154061809894E-03
(PID.TID 0000.0001) %MON trAdv_CFL_w_max              =   1.4212472007878E-03
(PID.TID 0000.0001) %MON advcfl_uvel_max              =   1.5890910729131E-03
(PID.TID 0000.0001) %MON advcfl_vvel_max              =   1.4652046279664E-03
(PID.TID 0000.0001) %MON advcfl_wvel_max              =   2.4219100889952E-03
(PID.TID 0000.0001) %MON advcfl_W_hf_max              =   1.4212472007878E-03
(PID.TID 0000.0001) %MON pe_b_mean                    =   9.9890116204959E-06
(PID.TID 0000.0001) %MON ke_max                       =   1.0834484696574E-01
(PID.TID 0000.0001) %MON ke_mean                      =   2.9197458369428E-05
(PID.TID 0000.0001) %MON ke_vol                       =   1.3398183489337E+18
(PID.TID 0000.0001) %MON vort_r_min                   =  -2.3804839174968E-06
(PID.TID 0000.0001) %MON vort_r_max                   =   2.3190258796365E-06
(PID.TID 0000.0001) %MON vort_a_mean                  =  -2.0549865324846E-05
(PID.TID 0000.0001) %MON vort_a_sd                    =   7.5259420167332E-05
(PID.TID 0000.0001) %MON vort_p_mean                  =  -2.4783225717197E-05
(PID.TID 0000.0001) %MON vort_p_sd                    =   1.2810506565833E-04
(PID.TID 0000.0001) %MON surfExpan_theta_mean         =  -3.4576924469698E-07
(PID.TID 0000.0001) %MON surfExpan_salt_mean          =   8.2203466524519E-07
(PID.TID 0000.0001) // =======================================================
(PID.TID 0000.0001) // End MONITOR dynamic field statistics
(PID.TID 0000.0001) // =======================================================
(PID.TID 0000.0001) // =======================================================
(PID.TID 0000.0001) // Begin MONITOR SEAICE statistics
(PID.TID 0000.0001) // =======================================================
(PID.TID 0000.0001) %MON seaice_tsnumber              =                    81
(PID.TID 0000.0001) %MON seaice_time_sec              =   7.2900000000000E+04
(PID.TID 0000.0001) %MON seaice_uice_max              =   3.4643015466703E-01
(PID.TID 0000.0001) %MON seaice_uice_min              =  -3.7616020633131E-01
(PID.TID 0000.0001) %MON seaice_uice_mean             =  -4.8324505566972E-03
(PID.TID 0000.0001) %MON seaice_uice_sd               =   4.3365533009795E-02
(PID.TID 0000.0001) %MON seaice_uice_del2             =   7.6247522741992E-04
(PID.TID 0000.0001) %MON seaice_vice_max              =   2.4902554891906E-01
(PID.TID 0000.0001) %MON seaice_vice_min              =  -3.8959872265240E-01
(PID.TID 0000.0001) %MON seaice_vice_mean             =  -1.0114441141470E-02
(PID.TID 0000.0001) %MON seaice_vice_sd               =   4.0572337944492E-02
(PID.TID 0000.0001) %MON seaice_vice_del2             =   7.8515933250077E-04
(PID.TID 0000.0001) %MON seaice_area_max              =   9.8008125425432E-01
(PID.TID 0000.0001) %MON seaice_area_min              =   0.0000000000000E+00
(PID.TID 0000.0001) %MON seaice_area_mean             =   6.1274490718250E-02
(PID.TID 0000.0001) %MON seaice_area_sd               =   2.1585786611256E-01
(PID.TID 0000.0001) %MON seaice_area_del2             =   1.4536151472143E-03
(PID.TID 0000.0001) %MON seaice_heff_max              =   8.2263581476841E+00
(PID.TID 0000.0001) %MON seaice_heff_min              =   0.0000000000000E+00
(PID.TID 0000.0001) %MON seaice_heff_mean             =   1.9181181608308E-01
(PID.TID 0000.0001) %MON seaice_heff_sd               =   9.3770491107759E-01
(PID.TID 0000.0001) %MON seaice_heff_del2             =   6.0995475092831E-03
(PID.TID 0000.0001) %MON seaice_hsnow_max             =   1.9741647493345E+00
(PID.TID 0000.0001) %MON seaice_hsnow_min             =   0.0000000000000E+00
(PID.TID 0000.0001) %MON seaice_hsnow_mean            =   2.1291059872461E-02
(PID.TID 0000.0001) %MON seaice_hsnow_sd              =   1.1482400402731E-01
(PID.TID 0000.0001) %MON seaice_hsnow_del2            =   1.4126411659776E-03
(PID.TID 0000.0001) // =======================================================
(PID.TID 0000.0001) // End MONITOR SEAICE statistics
(PID.TID 0000.0001) // =======================================================
 Computing Diagnostic #    211  SIarea       Counter:       1   Parms: SM      M1      
 Computing Diagnostic #    214  SIheff       Counter:       1   Parms: SM      M1      
 Computing Diagnostic #    216  SIhsnow      Counter:       1   Parms: SM      M1      
 Computing Diagnostic #     83  sIceLoad     Counter:       1   Parms: SM      U1      
 Computing Diagnostic #    220  SIuice       Counter:       1   Parms: UU      M1      
           Vector  Mate for  SIuice       Diagnostic #    221  SIvice   exists 
 Computing Diagnostic #    221  SIvice       Counter:       1   Parms: VV      M1      
           Vector  Mate for  SIvice       Diagnostic #    220  SIuice   exists 
 Computing Diagnostic #    222  SItaux       Counter:       1   Parms: UU      U1      
           Vector  Mate for  SItaux       Diagnostic #    223  SItauy   exists 
 Computing Diagnostic #    223  SItauy       Counter:       1   Parms: VV      U1      
           Vector  Mate for  SItauy       Diagnostic #    222  SItaux   exists 
 Computing Diagnostic #    284  CPLoWGHT     Counter:       1   Parms: SM      M1      
 Computing Diagnostic #    282  SIareaN      Counter:       1   Parms: SM      MX      
 Computing Diagnostic #    281  SIheffN      Counter:       1   Parms: SM      MX      
 Computing Diagnostic #    283  SIhsnowN     Counter:       1   Parms: SM      MX      
 Computing Diagnostic #    287  SIqSnow      Counter:       1   Parms: SM      MX      
 Computing Diagnostic #    288  SImeltPd     Counter:       1   Parms: SM      MX      
 Computing Diagnostic #    285  SItIces      Counter:       1   Parms: SM      MX      
 Computing Diagnostic #    289  SIiceAge     Counter:       1   Parms: SM      MX      
 Computing Diagnostic #    290  SI_dArea     Counter:       1   Parms: SM      MX      
 Computing Diagnostic #    291  SI_dHeff     Counter:       1   Parms: SM      MX      
 Computing Diagnostic #    292  SI_dHsnw     Counter:       1   Parms: SM      MX      
 Computing Diagnostic #    295  SI_dQSnw     Counter:       1   Parms: SM      MX      
 Computing Diagnostic #    286  SIqIce       Counter:       1   Parms: SM      MX      
 Computing Diagnostic #    294  SI_dQIce     Counter:       1   Parms: SM      MX      
 SEAICE_LSR: Residual Initial ipass,Uice,Vice=    1  3.44978921E-03  1.95400763E-03
 SEAICE_LSR (ipass=   1) iters,dU,Resid=     4  5.15990398E-05  9.43791181E-05
 SEAICE_LSR (ipass=   1) iters,dV,Resid=     4  9.30574950E-06  2.81656148E-05
 SEAICE_LSR: Residual Initial ipass,Uice,Vice=    2  3.03257385E-03  1.62569276E-03
 SEAICE_LSR (ipass=   2) iters,dU,Resid=     4  1.91256069E-05  6.08780171E-05
 SEAICE_LSR (ipass=   2) iters,dV,Resid=     4  5.78342453E-06  2.03613267E-05
 cg2d: Sum(rhs),rhsMax =  -1.00539237510727E+02  3.79360712860622E+01
(PID.TID 0000.0001)      cg2d_init_res =   1.92834576080892E-01
(PID.TID 0000.0001)      cg2d_iters(min,last) =      -1      10
(PID.TID 0000.0001)      cg2d_last_res =   8.49109974298068E-08
(PID.TID 0000.0001) // =======================================================
(PID.TID 0000.0001) // Begin MONITOR dynamic field statistics
(PID.TID 0000.0001) // =======================================================
(PID.TID 0000.0001) %MON time_tsnumber                =                    82
(PID.TID 0000.0001) %MON time_secondsf                =   7.3800000000000E+04
(PID.TID 0000.0001) %MON dynstat_eta_max              =   1.6525604567040E+00
(PID.TID 0000.0001) %MON dynstat_eta_min              =  -1.0028394992470E+00
(PID.TID 0000.0001) %MON dynstat_eta_mean             =   4.4318914343155E-02
(PID.TID 0000.0001) %MON dynstat_eta_sd               =   7.3625867846988E-02
(PID.TID 0000.0001) %MON dynstat_eta_del2             =   1.2698172693387E-03
(PID.TID 0000.0001) %MON dynstat_uvel_max             =   3.5995989307441E-01
(PID.TID 0000.0001) %MON dynstat_uvel_min             =  -5.5954227603463E-01
(PID.TID 0000.0001) %MON dynstat_uvel_mean            =  -9.5872933127913E-05
(PID.TID 0000.0001) %MON dynstat_uvel_sd              =   5.6126832550752E-03
(PID.TID 0000.0001) %MON dynstat_uvel_del2            =   6.9833159973003E-05
(PID.TID 0000.0001) %MON dynstat_vvel_max             =   3.1203024866228E-01
(PID.TID 0000.0001) %MON dynstat_vvel_min             =  -4.3993255967188E-01
(PID.TID 0000.0001) %MON dynstat_vvel_mean            =   5.4719757663077E-04
(PID.TID 0000.0001) %MON dynstat_vvel_sd              =   5.6622349223573E-03
(PID.TID 0000.0001) %MON dynstat_vvel_del2            =   7.6354839987679E-05
(PID.TID 0000.0001) %MON dynstat_wvel_max             =   1.4840947208886E-04
(PID.TID 0000.0001) %MON dynstat_wvel_min             =  -1.3328672276469E-04
(PID.TID 0000.0001) %MON dynstat_wvel_mean            =  -1.2078001333025E-07
(PID.TID 0000.0001) %MON dynstat_wvel_sd              =   6.3476569932065E-06
(PID.TID 0000.0001) %MON dynstat_wvel_del2            =   7.5019164970963E-08
(PID.TID 0000.0001) %MON dynstat_theta_max            =   2.2018130726373E+01
(PID.TID 0000.0001) %MON dynstat_theta_min            =   1.6069165029802E+01
(PID.TID 0000.0001) %MON dynstat_theta_mean           =   1.9997947738832E+01
(PID.TID 0000.0001) %MON dynstat_theta_sd             =   2.7284244842360E-02
(PID.TID 0000.0001) %MON dynstat_theta_del2           =   3.8058109231837E-04
(PID.TID 0000.0001) %MON dynstat_salt_max             =   3.5078277307761E+01
(PID.TID 0000.0001) %MON dynstat_salt_min             =   2.8568391895021E+01
(PID.TID 0000.0001) %MON dynstat_salt_mean            =   3.4999570855452E+01
(PID.TID 0000.0001) %MON dynstat_salt_sd              =   3.1656772828836E-02
(PID.TID 0000.0001) %MON dynstat_salt_del2            =   8.3369304643216E-04
(PID.TID 0000.0001) %MON dynstat_sst_max              =   2.2018130726373E+01
(PID.TID 0000.0001) %MON dynstat_sst_min              =   1.6069165029802E+01
(PID.TID 0000.0001) %MON dynstat_sst_mean             =   2.0070354836330E+01
(PID.TID 0000.0001) %MON dynstat_sst_sd               =   1.9888512340109E-01
(PID.TID 0000.0001) %MON dynstat_sst_del2             =   4.4606174544295E-03
(PID.TID 0000.0001) %MON dynstat_sss_max              =   3.5078277307761E+01
(PID.TID 0000.0001) %MON dynstat_sss_min              =   2.8568391895021E+01
(PID.TID 0000.0001) %MON dynstat_sss_mean             =   3.4978276517048E+01
(PID.TID 0000.0001) %MON dynstat_sss_sd               =   2.7029295095065E-01
(PID.TID 0000.0001) %MON dynstat_sss_del2             =   1.0470319818282E-02
(PID.TID 0000.0001) %MON forcing_qnet_max             =   2.6785463938002E+03
(PID.TID 0000.0001) %MON forcing_qnet_min             =  -3.1526347656250E+03
(PID.TID 0000.0001) %MON forcing_qnet_mean            =  -2.7282351186175E+01
(PID.TID 0000.0001) %MON forcing_qnet_sd              =   4.5302221317231E+02
(PID.TID 0000.0001) %MON forcing_qnet_del2            =   5.5547530517365E+00
(PID.TID 0000.0001) %MON forcing_qsw_max              =   0.0000000000000E+00
(PID.TID 0000.0001) %MON forcing_qsw_min              =  -1.0654344343382E+02
(PID.TID 0000.0001) %MON forcing_qsw_mean             =  -1.9183086060497E+01
(PID.TID 0000.0001) %MON forcing_qsw_sd               =   2.8000174846877E+01
(PID.TID 0000.0001) %MON forcing_qsw_del2             =   1.4541090634256E-01
(PID.TID 0000.0001) %MON forcing_empmr_max            =   4.7950167208910E-03
(PID.TID 0000.0001) %MON forcing_empmr_min            =  -6.8912498652935E-02
(PID.TID 0000.0001) %MON forcing_empmr_mean           =  -3.5218610436824E-04
(PID.TID 0000.0001) %MON forcing_empmr_sd             =   3.0742760509449E-03
(PID.TID 0000.0001) %MON forcing_empmr_del2           =   1.2026201474754E-04
(PID.TID 0000.0001) %MON forcing_fu_max               =   5.2971333988732E-01
(PID.TID 0000.0001) %MON forcing_fu_min               =  -6.1227508468095E-01
(PID.TID 0000.0001) %MON forcing_fu_mean              =  -8.4794379114794E-04
(PID.TID 0000.0001) %MON forcing_fu_sd                =   8.1330334232013E-02
(PID.TID 0000.0001) %MON forcing_fu_del2              =   6.9290756236486E-04
(PID.TID 0000.0001) %MON forcing_fv_max               =   3.6858644380516E-01
(PID.TID 0000.0001) %MON forcing_fv_min               =  -3.3259325574214E-01
(PID.TID 0000.0001) %MON forcing_fv_mean              =  -6.6302247026473E-03
(PID.TID 0000.0001) %MON forcing_fv_sd                =   7.1032064775085E-02
(PID.TID 0000.0001) %MON forcing_fv_del2              =   5.7587427291452E-04
(PID.TID 0000.0001) %MON trAdv_CFL_u_max              =   1.6178386446583E-03
(PID.TID 0000.0001) %MON trAdv_CFL_v_max              =   1.4185343897668E-03
(PID.TID 0000.0001) %MON trAdv_CFL_w_max              =   1.3655153024931E-03
(PID.TID 0000.0001) %MON advcfl_uvel_max              =   1.6141899618927E-03
(PID.TID 0000.0001) %MON advcfl_vvel_max              =   1.4679368694614E-03
(PID.TID 0000.0001) %MON advcfl_wvel_max              =   2.3969564748847E-03
(PID.TID 0000.0001) %MON advcfl_W_hf_max              =   1.3697223960171E-03
(PID.TID 0000.0001) %MON pe_b_mean                    =   9.8379799734937E-06
(PID.TID 0000.0001) %MON ke_max                       =   1.0414647027457E-01
(PID.TID 0000.0001) %MON ke_mean                      =   2.9491225587393E-05
(PID.TID 0000.0001) %MON ke_vol                       =   1.3398184609880E+18
(PID.TID 0000.0001) %MON vort_r_min                   =  -2.3890744914544E-06
(PID.TID 0000.0001) %MON vort_r_max                   =   2.3281836974088E-06
(PID.TID 0000.0001) %MON vort_a_mean                  =  -2.0549865324846E-05
(PID.TID 0000.0001) %MON vort_a_sd                    =   7.5259416356323E-05
(PID.TID 0000.0001) %MON vort_p_mean                  =  -2.4783223618311E-05
(PID.TID 0000.0001) %MON vort_p_sd                    =   1.2810505911670E-04
(PID.TID 0000.0001) %MON surfExpan_theta_mean         =  -3.4743642568345E-07
(PID.TID 0000.0001) %MON surfExpan_salt_mean          =   8.1514464376030E-07
(PID.TID 0000.0001) // =======================================================
(PID.TID 0000.0001) // End MONITOR dynamic field statistics
(PID.TID 0000.0001) // =======================================================
(PID.TID 0000.0001) // =======================================================
(PID.TID 0000.0001) // Begin MONITOR SEAICE statistics
(PID.TID 0000.0001) // =======================================================
(PID.TID 0000.0001) %MON seaice_tsnumber              =                    82
(PID.TID 0000.0001) %MON seaice_time_sec              =   7.3800000000000E+04
(PID.TID 0000.0001) %MON seaice_uice_max              =   3.5631012928399E-01
(PID.TID 0000.0001) %MON seaice_uice_min              =  -3.8226361177764E-01
(PID.TID 0000.0001) %MON seaice_uice_mean             =  -4.9670533659322E-03
(PID.TID 0000.0001) %MON seaice_uice_sd               =   4.3361071023576E-02
(PID.TID 0000.0001) %MON seaice_uice_del2             =   7.6061567310888E-04
(PID.TID 0000.0001) %MON seaice_vice_max              =   2.7506952960935E-01
(PID.TID 0000.0001) %MON seaice_vice_min              =  -4.1331523819847E-01
(PID.TID 0000.0001) %MON seaice_vice_mean             =  -9.8753225766847E-03
(PID.TID 0000.0001) %MON seaice_vice_sd               =   4.1315019792854E-02
(PID.TID 0000.0001) %MON seaice_vice_del2             =   7.9554142680722E-04
(PID.TID 0000.0001) %MON seaice_area_max              =   9.7970143137985E-01
(PID.TID 0000.0001) %MON seaice_area_min              =   0.0000000000000E+00
(PID.TID 0000.0001) %MON seaice_area_mean             =   6.1185607250874E-02
(PID.TID 0000.0001) %MON seaice_area_sd               =   2.1561856986945E-01
(PID.TID 0000.0001) %MON seaice_area_del2             =   1.4498980850904E-03
(PID.TID 0000.0001) %MON seaice_heff_max              =   8.2237468456973E+00
(PID.TID 0000.0001) %MON seaice_heff_min              =   0.0000000000000E+00
(PID.TID 0000.0001) %MON seaice_heff_mean             =   1.9164348648002E-01
(PID.TID 0000.0001) %MON seaice_heff_sd               =   9.3721660999156E-01
(PID.TID 0000.0001) %MON seaice_heff_del2             =   6.0979675377791E-03
(PID.TID 0000.0001) %MON seaice_hsnow_max             =   1.9734339673752E+00
(PID.TID 0000.0001) %MON seaice_hsnow_min             =   0.0000000000000E+00
(PID.TID 0000.0001) %MON seaice_hsnow_mean            =   2.1271750326572E-02
(PID.TID 0000.0001) %MON seaice_hsnow_sd              =   1.1476410416442E-01
(PID.TID 0000.0001) %MON seaice_hsnow_del2            =   1.4120559324381E-03
(PID.TID 0000.0001) // =======================================================
(PID.TID 0000.0001) // End MONITOR SEAICE statistics
(PID.TID 0000.0001) // =======================================================
 SEAICE_LSR: Residual Initial ipass,Uice,Vice=    1  3.54799199E-03  2.09555344E-03
 SEAICE_LSR (ipass=   1) iters,dU,Resid=     4  4.62748215E-05  9.20864923E-05
 SEAICE_LSR (ipass=   1) iters,dV,Resid=     4  8.64599104E-06  2.58335760E-05
 SEAICE_LSR: Residual Initial ipass,Uice,Vice=    2  2.94748479E-03  1.99148998E-03
 SEAICE_LSR (ipass=   2) iters,dU,Resid=     4  1.71143145E-05  5.12746717E-05
 SEAICE_LSR (ipass=   2) iters,dV,Resid=     4  5.56584360E-06  1.96306333E-05
 cg2d: Sum(rhs),rhsMax =  -1.03826489212898E+02  3.69872187260033E+01
(PID.TID 0000.0001)      cg2d_init_res =   1.98921525638970E-01
(PID.TID 0000.0001)      cg2d_iters(min,last) =      -1      10
(PID.TID 0000.0001)      cg2d_last_res =   8.27137538237989E-08
(PID.TID 0000.0001) // =======================================================
(PID.TID 0000.0001) // Begin MONITOR dynamic field statistics
(PID.TID 0000.0001) // =======================================================
(PID.TID 0000.0001) %MON time_tsnumber                =                    83
(PID.TID 0000.0001) %MON time_secondsf                =   7.4700000000000E+04
(PID.TID 0000.0001) %MON dynstat_eta_max              =   1.6113899666399E+00
(PID.TID 0000.0001) %MON dynstat_eta_min              =  -8.0480498069572E-01
(PID.TID 0000.0001) %MON dynstat_eta_mean             =   4.4623231522787E-02
(PID.TID 0000.0001) %MON dynstat_eta_sd               =   7.2700285100632E-02
(PID.TID 0000.0001) %MON dynstat_eta_del2             =   1.2126997814056E-03
(PID.TID 0000.0001) %MON dynstat_uvel_max             =   3.6237389202062E-01
(PID.TID 0000.0001) %MON dynstat_uvel_min             =  -5.6619677439572E-01
(PID.TID 0000.0001) %MON dynstat_uvel_mean            =  -1.0603039156449E-04
(PID.TID 0000.0001) %MON dynstat_uvel_sd              =   5.6067141999673E-03
(PID.TID 0000.0001) %MON dynstat_uvel_del2            =   7.0026206225971E-05
(PID.TID 0000.0001) %MON dynstat_vvel_max             =   3.2989556480541E-01
(PID.TID 0000.0001) %MON dynstat_vvel_min             =  -4.4854521761834E-01
(PID.TID 0000.0001) %MON dynstat_vvel_mean            =   5.2295253193227E-04
(PID.TID 0000.0001) %MON dynstat_vvel_sd              =   5.7215120331572E-03
(PID.TID 0000.0001) %MON dynstat_vvel_del2            =   7.6758230405564E-05
(PID.TID 0000.0001) %MON dynstat_wvel_max             =   1.4724345969726E-04
(PID.TID 0000.0001) %MON dynstat_wvel_min             =  -1.2793939682214E-04
(PID.TID 0000.0001) %MON dynstat_wvel_mean            =  -1.1423593067671E-07
(PID.TID 0000.0001) %MON dynstat_wvel_sd              =   6.2991223532223E-06
(PID.TID 0000.0001) %MON dynstat_wvel_del2            =   7.4652719974607E-08
(PID.TID 0000.0001) %MON dynstat_theta_max            =   2.2032634002201E+01
(PID.TID 0000.0001) %MON dynstat_theta_min            =   1.6070783452213E+01
(PID.TID 0000.0001) %MON dynstat_theta_mean           =   1.9997949386114E+01
(PID.TID 0000.0001) %MON dynstat_theta_sd             =   2.7405106230712E-02
(PID.TID 0000.0001) %MON dynstat_theta_del2           =   3.8169278121413E-04
(PID.TID 0000.0001) %MON dynstat_salt_max             =   3.5078274241073E+01
(PID.TID 0000.0001) %MON dynstat_salt_min             =   2.8540947331424E+01
(PID.TID 0000.0001) %MON dynstat_salt_mean            =   3.4999568264149E+01
(PID.TID 0000.0001) %MON dynstat_salt_sd              =   3.1797938684220E-02
(PID.TID 0000.0001) %MON dynstat_salt_del2            =   8.3706499307164E-04
(PID.TID 0000.0001) %MON dynstat_sst_max              =   2.2032634002201E+01
(PID.TID 0000.0001) %MON dynstat_sst_min              =   1.6070783452213E+01
(PID.TID 0000.0001) %MON dynstat_sst_mean             =   2.0071095294061E+01
(PID.TID 0000.0001) %MON dynstat_sst_sd               =   1.9973096935574E-01
(PID.TID 0000.0001) %MON dynstat_sst_del2             =   4.4749636423467E-03
(PID.TID 0000.0001) %MON dynstat_sss_max              =   3.5078274241073E+01
(PID.TID 0000.0001) %MON dynstat_sss_min              =   2.8540947331424E+01
(PID.TID 0000.0001) %MON dynstat_sss_mean             =   3.4978147259111E+01
(PID.TID 0000.0001) %MON dynstat_sss_sd               =   2.7150193137999E-01
(PID.TID 0000.0001) %MON dynstat_sss_del2             =   1.0512691350131E-02
(PID.TID 0000.0001) %MON forcing_qnet_max             =   2.7146340462286E+03
(PID.TID 0000.0001) %MON forcing_qnet_min             =  -3.1146931152344E+03
(PID.TID 0000.0001) %MON forcing_qnet_mean            =  -2.7133852449680E+01
(PID.TID 0000.0001) %MON forcing_qnet_sd              =   4.5122216420715E+02
(PID.TID 0000.0001) %MON forcing_qnet_del2            =   5.4970567240099E+00
(PID.TID 0000.0001) %MON forcing_qsw_max              =   0.0000000000000E+00
(PID.TID 0000.0001) %MON forcing_qsw_min              =  -1.0715127875493E+02
(PID.TID 0000.0001) %MON forcing_qsw_mean             =  -1.9303662814115E+01
(PID.TID 0000.0001) %MON forcing_qsw_sd               =   2.8063319702436E+01
(PID.TID 0000.0001) %MON forcing_qsw_del2             =   1.4558670188352E-01
(PID.TID 0000.0001) %MON forcing_empmr_max            =   4.7457166947424E-03
(PID.TID 0000.0001) %MON forcing_empmr_min            =  -6.8202629685402E-02
(PID.TID 0000.0001) %MON forcing_empmr_mean           =  -3.4996475657625E-04
(PID.TID 0000.0001) %MON forcing_empmr_sd             =   3.0436467113843E-03
(PID.TID 0000.0001) %MON forcing_empmr_del2           =   1.1902613298422E-04
(PID.TID 0000.0001) %MON forcing_fu_max               =   5.3078406038446E-01
(PID.TID 0000.0001) %MON forcing_fu_min               =  -6.0610124212588E-01
(PID.TID 0000.0001) %MON forcing_fu_mean              =  -9.0578101744758E-04
(PID.TID 0000.0001) %MON forcing_fu_sd                =   8.0944171327348E-02
(PID.TID 0000.0001) %MON forcing_fu_del2              =   6.9004656592030E-04
(PID.TID 0000.0001) %MON forcing_fv_max               =   3.6457955825012E-01
(PID.TID 0000.0001) %MON forcing_fv_min               =  -3.2842750508796E-01
(PID.TID 0000.0001) %MON forcing_fv_mean              =  -6.6325357533803E-03
(PID.TID 0000.0001) %MON forcing_fv_sd                =   7.1061013404967E-02
(PID.TID 0000.0001) %MON forcing_fv_del2              =   5.7419974303358E-04
(PID.TID 0000.0001) %MON trAdv_CFL_u_max              =   1.6381018946923E-03
(PID.TID 0000.0001) %MON trAdv_CFL_v_max              =   1.4208671817508E-03
(PID.TID 0000.0001) %MON trAdv_CFL_w_max              =   1.3115093059748E-03
(PID.TID 0000.0001) %MON advcfl_uvel_max              =   1.6333871252099E-03
(PID.TID 0000.0001) %MON advcfl_vvel_max              =   1.4700459497233E-03
(PID.TID 0000.0001) %MON advcfl_wvel_max              =   2.3722653803618E-03
(PID.TID 0000.0001) %MON advcfl_W_hf_max              =   1.3536110477450E-03
(PID.TID 0000.0001) %MON pe_b_mean                    =   9.6936115742870E-06
(PID.TID 0000.0001) %MON ke_max                       =   1.0248312792867E-01
(PID.TID 0000.0001) %MON ke_mean                      =   2.9762448992753E-05
(PID.TID 0000.0001) %MON ke_vol                       =   1.3398185724279E+18
(PID.TID 0000.0001) %MON vort_r_min                   =  -2.3975237488073E-06
(PID.TID 0000.0001) %MON vort_r_max                   =   2.3386008000081E-06
(PID.TID 0000.0001) %MON vort_a_mean                  =  -2.0549865324846E-05
(PID.TID 0000.0001) %MON vort_a_sd                    =   7.5259412944502E-05
(PID.TID 0000.0001) %MON vort_p_mean                  =  -2.4783221547600E-05
(PID.TID 0000.0001) %MON vort_p_sd                    =   1.2810505468234E-04
(PID.TID 0000.0001) %MON surfExpan_theta_mean         =  -3.4633047362895E-07
(PID.TID 0000.0001) %MON surfExpan_salt_mean          =   8.0763673291189E-07
(PID.TID 0000.0001) // =======================================================
(PID.TID 0000.0001) // End MONITOR dynamic field statistics
(PID.TID 0000.0001) // =======================================================
(PID.TID 0000.0001) // =======================================================
(PID.TID 0000.0001) // Begin MONITOR SEAICE statistics
(PID.TID 0000.0001) // =======================================================
(PID.TID 0000.0001) %MON seaice_tsnumber              =                    83
(PID.TID 0000.0001) %MON seaice_time_sec              =   7.4700000000000E+04
(PID.TID 0000.0001) %MON seaice_uice_max              =   3.6252884923510E-01
(PID.TID 0000.0001) %MON seaice_uice_min              =  -3.9120342123857E-01
(PID.TID 0000.0001) %MON seaice_uice_mean             =  -5.1081869839818E-03
(PID.TID 0000.0001) %MON seaice_uice_sd               =   4.3303827922250E-02
(PID.TID 0000.0001) %MON seaice_uice_del2             =   7.5962814621509E-04
(PID.TID 0000.0001) %MON seaice_vice_max              =   2.9778061351139E-01
(PID.TID 0000.0001) %MON seaice_vice_min              =  -4.2972586996226E-01
(PID.TID 0000.0001) %MON seaice_vice_mean             =  -9.6345955968896E-03
(PID.TID 0000.0001) %MON seaice_vice_sd               =   4.2052175098089E-02
(PID.TID 0000.0001) %MON seaice_vice_del2             =   8.0435079007508E-04
(PID.TID 0000.0001) %MON seaice_area_max              =   9.7932009718737E-01
(PID.TID 0000.0001) %MON seaice_area_min              =   0.0000000000000E+00
(PID.TID 0000.0001) %MON seaice_area_mean             =   6.1096811251873E-02
(PID.TID 0000.0001) %MON seaice_area_sd               =   2.1537955542417E-01
(PID.TID 0000.0001) %MON seaice_area_del2             =   1.4461894952740E-03
(PID.TID 0000.0001) %MON seaice_heff_max              =   8.2211357040080E+00
(PID.TID 0000.0001) %MON seaice_heff_min              =   0.0000000000000E+00
(PID.TID 0000.0001) %MON seaice_heff_mean             =   1.9147533825152E-01
(PID.TID 0000.0001) %MON seaice_heff_sd               =   9.3672844271099E-01
(PID.TID 0000.0001) %MON seaice_heff_del2             =   6.0963860080872E-03
(PID.TID 0000.0001) %MON seaice_hsnow_max             =   1.9727124385984E+00
(PID.TID 0000.0001) %MON seaice_hsnow_min             =   0.0000000000000E+00
(PID.TID 0000.0001) %MON seaice_hsnow_mean            =   2.1252587856059E-02
(PID.TID 0000.0001) %MON seaice_hsnow_sd              =   1.1470459876542E-01
(PID.TID 0000.0001) %MON seaice_hsnow_del2            =   1.4114745552493E-03
(PID.TID 0000.0001) // =======================================================
(PID.TID 0000.0001) // End MONITOR SEAICE statistics
(PID.TID 0000.0001) // =======================================================
 SEAICE_LSR: Residual Initial ipass,Uice,Vice=    1  3.54275444E-03  2.08161773E-03
 SEAICE_LSR (ipass=   1) iters,dU,Resid=     4  3.86877756E-05  8.02002715E-05
 SEAICE_LSR (ipass=   1) iters,dV,Resid=     4  7.77914455E-06  2.10536983E-05
 SEAICE_LSR: Residual Initial ipass,Uice,Vice=    2  2.61984739E-03  1.75668803E-03
 SEAICE_LSR (ipass=   2) iters,dU,Resid=     4  1.42950247E-05  4.10545428E-05
 SEAICE_LSR (ipass=   2) iters,dV,Resid=     4  4.58918085E-06  1.42716183E-05
 cg2d: Sum(rhs),rhsMax =  -1.07745493937174E+02  3.58843097385386E+01
(PID.TID 0000.0001)      cg2d_init_res =   2.05494646385716E-01
(PID.TID 0000.0001)      cg2d_iters(min,last) =      -1      10
(PID.TID 0000.0001)      cg2d_last_res =   7.93231651335670E-08
(PID.TID 0000.0001) // =======================================================
(PID.TID 0000.0001) // Begin MONITOR dynamic field statistics
(PID.TID 0000.0001) // =======================================================
(PID.TID 0000.0001) %MON time_tsnumber                =                    84
(PID.TID 0000.0001) %MON time_secondsf                =   7.5600000000000E+04
(PID.TID 0000.0001) %MON dynstat_eta_max              =   1.5635392976406E+00
(PID.TID 0000.0001) %MON dynstat_eta_min              =  -7.1927849791954E-01
(PID.TID 0000.0001) %MON dynstat_eta_mean             =   4.4926737943432E-02
(PID.TID 0000.0001) %MON dynstat_eta_sd               =   7.1829233591993E-02
(PID.TID 0000.0001) %MON dynstat_eta_del2             =   1.1599688373339E-03
(PID.TID 0000.0001) %MON dynstat_uvel_max             =   3.6121233331970E-01
(PID.TID 0000.0001) %MON dynstat_uvel_min             =  -5.7071863316483E-01
(PID.TID 0000.0001) %MON dynstat_uvel_mean            =  -1.1566870614976E-04
(PID.TID 0000.0001) %MON dynstat_uvel_sd              =   5.5990172763344E-03
(PID.TID 0000.0001) %MON dynstat_uvel_del2            =   7.0259509171972E-05
(PID.TID 0000.0001) %MON dynstat_vvel_max             =   3.4350696955962E-01
(PID.TID 0000.0001) %MON dynstat_vvel_min             =  -4.5004286287685E-01
(PID.TID 0000.0001) %MON dynstat_vvel_mean            =   5.0032684940125E-04
(PID.TID 0000.0001) %MON dynstat_vvel_sd              =   5.7759617563737E-03
(PID.TID 0000.0001) %MON dynstat_vvel_del2            =   7.6915385181537E-05
(PID.TID 0000.0001) %MON dynstat_wvel_max             =   1.4569619855480E-04
(PID.TID 0000.0001) %MON dynstat_wvel_min             =  -1.2276272441859E-04
(PID.TID 0000.0001) %MON dynstat_wvel_mean            =  -1.0930631392561E-07
(PID.TID 0000.0001) %MON dynstat_wvel_sd              =   6.2504109239712E-06
(PID.TID 0000.0001) %MON dynstat_wvel_del2            =   7.4252724686182E-08
(PID.TID 0000.0001) %MON dynstat_theta_max            =   2.2046946422092E+01
(PID.TID 0000.0001) %MON dynstat_theta_min            =   1.6072606009780E+01
(PID.TID 0000.0001) %MON dynstat_theta_mean           =   1.9997951005211E+01
(PID.TID 0000.0001) %MON dynstat_theta_sd             =   2.7525708416101E-02
(PID.TID 0000.0001) %MON dynstat_theta_del2           =   3.8279969148314E-04
(PID.TID 0000.0001) %MON dynstat_salt_max             =   3.5078271131050E+01
(PID.TID 0000.0001) %MON dynstat_salt_min             =   2.8514066333878E+01
(PID.TID 0000.0001) %MON dynstat_salt_mean            =   3.4999565685686E+01
(PID.TID 0000.0001) %MON dynstat_salt_sd              =   3.1936360375188E-02
(PID.TID 0000.0001) %MON dynstat_salt_del2            =   8.4035852039383E-04
(PID.TID 0000.0001) %MON dynstat_sst_max              =   2.2046946422092E+01
(PID.TID 0000.0001) %MON dynstat_sst_min              =   1.6072606009780E+01
(PID.TID 0000.0001) %MON dynstat_sst_mean             =   2.0071830511100E+01
(PID.TID 0000.0001) %MON dynstat_sst_sd               =   2.0057299149596E-01
(PID.TID 0000.0001) %MON dynstat_sst_del2             =   4.4892526985138E-03
(PID.TID 0000.0001) %MON dynstat_sss_max              =   3.5078271131050E+01
(PID.TID 0000.0001) %MON dynstat_sss_min              =   2.8514066333878E+01
(PID.TID 0000.0001) %MON dynstat_sss_mean             =   3.4978018747576E+01
(PID.TID 0000.0001) %MON dynstat_sss_sd               =   2.7268676945309E-01
(PID.TID 0000.0001) %MON dynstat_sss_del2             =   1.0554077979256E-02
(PID.TID 0000.0001) %MON forcing_qnet_max             =   2.7790052538083E+03
(PID.TID 0000.0001) %MON forcing_qnet_min             =  -3.0762700195312E+03
(PID.TID 0000.0001) %MON forcing_qnet_mean            =  -2.6677935189019E+01
(PID.TID 0000.0001) %MON forcing_qnet_sd              =   4.4938232350476E+02
(PID.TID 0000.0001) %MON forcing_qnet_del2            =   5.4394713737670E+00
(PID.TID 0000.0001) %MON forcing_qsw_max              =   0.0000000000000E+00
(PID.TID 0000.0001) %MON forcing_qsw_min              =  -1.0731678881480E+02
(PID.TID 0000.0001) %MON forcing_qsw_mean             =  -1.9379478010374E+01
(PID.TID 0000.0001) %MON forcing_qsw_sd               =   2.8101857211273E+01
(PID.TID 0000.0001) %MON forcing_qsw_del2             =   1.4545045273997E-01
(PID.TID 0000.0001) %MON forcing_empmr_max            =   4.6969088725746E-03
(PID.TID 0000.0001) %MON forcing_empmr_min            =  -6.7500308156013E-02
(PID.TID 0000.0001) %MON forcing_empmr_mean           =  -3.4903238374218E-04
(PID.TID 0000.0001) %MON forcing_empmr_sd             =   3.0132713219080E-03
(PID.TID 0000.0001) %MON forcing_empmr_del2           =   1.1780754306038E-04
(PID.TID 0000.0001) %MON forcing_fu_max               =   5.2899631600184E-01
(PID.TID 0000.0001) %MON forcing_fu_min               =  -6.0397044681171E-01
(PID.TID 0000.0001) %MON forcing_fu_mean              =  -9.9979578114124E-04
(PID.TID 0000.0001) %MON forcing_fu_sd                =   8.0569513238556E-02
(PID.TID 0000.0001) %MON forcing_fu_del2              =   6.8778139270849E-04
(PID.TID 0000.0001) %MON forcing_fv_max               =   3.5992820887071E-01
(PID.TID 0000.0001) %MON forcing_fv_min               =  -3.2470129293160E-01
(PID.TID 0000.0001) %MON forcing_fv_mean              =  -6.6562440330094E-03
(PID.TID 0000.0001) %MON forcing_fv_sd                =   7.1112355371433E-02
(PID.TID 0000.0001) %MON forcing_fv_del2              =   5.7247225290629E-04
(PID.TID 0000.0001) %MON trAdv_CFL_u_max              =   1.6522779553889E-03
(PID.TID 0000.0001) %MON trAdv_CFL_v_max              =   1.4237684762912E-03
(PID.TID 0000.0001) %MON trAdv_CFL_w_max              =   1.2594305427749E-03
(PID.TID 0000.0001) %MON advcfl_uvel_max              =   1.6464319644415E-03
(PID.TID 0000.0001) %MON advcfl_vvel_max              =   1.4713878184636E-03
(PID.TID 0000.0001) %MON advcfl_wvel_max              =   2.3478368054266E-03
(PID.TID 0000.0001) %MON advcfl_W_hf_max              =   1.3332101506040E-03
(PID.TID 0000.0001) %MON pe_b_mean                    =   9.5621075237185E-06
(PID.TID 0000.0001) %MON ke_max                       =   1.0736783066560E-01
(PID.TID 0000.0001) %MON ke_mean                      =   3.0003527188796E-05
(PID.TID 0000.0001) %MON ke_vol                       =   1.3398186831649E+18
(PID.TID 0000.0001) %MON vort_r_min                   =  -2.4056019514366E-06
(PID.TID 0000.0001) %MON vort_r_max                   =   2.3495707984925E-06
(PID.TID 0000.0001) %MON vort_a_mean                  =  -2.0549865324846E-05
(PID.TID 0000.0001) %MON vort_a_sd                    =   7.5259409952084E-05
(PID.TID 0000.0001) %MON vort_p_mean                  =  -2.4783219505993E-05
(PID.TID 0000.0001) %MON vort_p_sd                    =   1.2810505200645E-04
(PID.TID 0000.0001) %MON surfExpan_theta_mean         =  -3.4259051771334E-07
(PID.TID 0000.0001) %MON surfExpan_salt_mean          =   7.9957941801896E-07
(PID.TID 0000.0001) // =======================================================
(PID.TID 0000.0001) // End MONITOR dynamic field statistics
(PID.TID 0000.0001) // =======================================================
(PID.TID 0000.0001) // =======================================================
(PID.TID 0000.0001) // Begin MONITOR SEAICE statistics
(PID.TID 0000.0001) // =======================================================
(PID.TID 0000.0001) %MON seaice_tsnumber              =                    84
(PID.TID 0000.0001) %MON seaice_time_sec              =   7.5600000000000E+04
(PID.TID 0000.0001) %MON seaice_uice_max              =   3.6506738206436E-01
(PID.TID 0000.0001) %MON seaice_uice_min              =  -3.9971771104490E-01
(PID.TID 0000.0001) %MON seaice_uice_mean             =  -5.2551655987022E-03
(PID.TID 0000.0001) %MON seaice_uice_sd               =   4.3209592422523E-02
(PID.TID 0000.0001) %MON seaice_uice_del2             =   7.5954783769389E-04
(PID.TID 0000.0001) %MON seaice_vice_max              =   3.1668445566517E-01
(PID.TID 0000.0001) %MON seaice_vice_min              =  -4.3884221268769E-01
(PID.TID 0000.0001) %MON seaice_vice_mean             =  -9.3905616294498E-03
(PID.TID 0000.0001) %MON seaice_vice_sd               =   4.2764947493365E-02
(PID.TID 0000.0001) %MON seaice_vice_del2             =   8.1099048947799E-04
(PID.TID 0000.0001) %MON seaice_area_max              =   9.7893754795750E-01
(PID.TID 0000.0001) %MON seaice_area_min              =   0.0000000000000E+00
(PID.TID 0000.0001) %MON seaice_area_mean             =   6.1008107481779E-02
(PID.TID 0000.0001) %MON seaice_area_sd               =   2.1514081468585E-01
(PID.TID 0000.0001) %MON seaice_area_del2             =   1.4424873206605E-03
(PID.TID 0000.0001) %MON seaice_heff_max              =   8.2185240875579E+00
(PID.TID 0000.0001) %MON seaice_heff_min              =   0.0000000000000E+00
(PID.TID 0000.0001) %MON seaice_heff_mean             =   1.9130735829528E-01
(PID.TID 0000.0001) %MON seaice_heff_sd               =   9.3624038884565E-01
(PID.TID 0000.0001) %MON seaice_heff_del2             =   6.0948050478079E-03
(PID.TID 0000.0001) %MON seaice_hsnow_max             =   1.9719954158407E+00
(PID.TID 0000.0001) %MON seaice_hsnow_min             =   0.0000000000000E+00
(PID.TID 0000.0001) %MON seaice_hsnow_mean            =   2.1233511157274E-02
(PID.TID 0000.0001) %MON seaice_hsnow_sd              =   1.1464513854744E-01
(PID.TID 0000.0001) %MON seaice_hsnow_del2            =   1.4108875412753E-03
(PID.TID 0000.0001) // =======================================================
(PID.TID 0000.0001) // End MONITOR SEAICE statistics
(PID.TID 0000.0001) // =======================================================
 Compute Stats, Diag. #    211  SIarea    vol(   0 ): 1.456E+15  Parms: SM      M1      
 Compute Stats, Diag. #    214  SIheff    vol(   0 ): 1.456E+15  Parms: SM      M1      
 Compute Stats, Diag. #    216  SIhsnow   vol(   0 ): 1.456E+15  Parms: SM      M1      
 Compute Stats, Diag. #     83  sIceLoad  vol(   0 ): 1.456E+15  Parms: SM      U1      
 Compute Stats, Diag. #    220  SIuice    vol(   0 ): 1.383E+15  Parms: UU      M1      
 Compute Stats, Diag. #    221  SIvice    vol(   0 ): 1.391E+15  Parms: VV      M1      
 Compute Stats, Diag. #    222  SItaux    vol(   0 ): 1.383E+15  Parms: UU      U1      
 Compute Stats, Diag. #    223  SItauy    vol(   0 ): 1.391E+15  Parms: VV      U1      
 Compute Stats, Diag. #    282  SIareaN   vol(   0 ): 7.278E+15  Parms: SM      MX      
 Compute Stats, Diag. #    281  SIheffN   vol(   0 ): 7.278E+15  Parms: SM      MX      
 Compute Stats, Diag. #    283  SIhsnowN  vol(   0 ): 7.278E+15  Parms: SM      MX      
 Compute Stats, Diag. #    287  SIqSnow   vol(   0 ): 7.278E+15  Parms: SM      MX      
 Compute Stats, Diag. #    286  SIqIce    vol(   0 ): 2.911E+16  Parms: SM      MX      
 Compute Stats, Diag. #    288  SImeltPd  vol(   0 ): 7.278E+15  Parms: SM      MX      
 Compute Stats, Diag. #    285  SItIces   vol(   0 ): 7.278E+15  Parms: SM      MX      
 Compute Stats, Diag. #    289  SIiceAge  vol(   0 ): 7.278E+15  Parms: SM      MX      
 Compute Stats, Diag. #    290  SI_dArea  vol(   0 ): 7.278E+15  Parms: SM      MX      
 Compute Stats, Diag. #    291  SI_dHeff  vol(   0 ): 7.278E+15  Parms: SM      MX      
 Compute Stats, Diag. #    292  SI_dHsnw  vol(   0 ): 7.278E+15  Parms: SM      MX      
 Compute Stats, Diag. #    295  SI_dQSnw  vol(   0 ): 7.278E+15  Parms: SM      MX      
 Compute Stats, Diag. #    294  SI_dQIce  vol(   0 ): 2.911E+16  Parms: SM      MX      
 SEAICE_LSR: Residual Initial ipass,Uice,Vice=    1  3.55835218E-03  1.81950250E-03
 SEAICE_LSR (ipass=   1) iters,dU,Resid=     4  3.14569241E-05  7.07641953E-05
 SEAICE_LSR (ipass=   1) iters,dV,Resid=     4  6.70154462E-06  1.28101392E-05
 SEAICE_LSR: Residual Initial ipass,Uice,Vice=    2  2.41258657E-03  1.47193487E-03
 SEAICE_LSR (ipass=   2) iters,dU,Resid=     4  1.16481444E-05  3.36772485E-05
 SEAICE_LSR (ipass=   2) iters,dV,Resid=     4  4.17408224E-06  8.47502405E-06
 cg2d: Sum(rhs),rhsMax =  -1.12380333677069E+02  3.46352095856144E+01
(PID.TID 0000.0001)      cg2d_init_res =   2.12565446106288E-01
(PID.TID 0000.0001)      cg2d_iters(min,last) =      -1      10
(PID.TID 0000.0001)      cg2d_last_res =   7.32741518986896E-08
(PID.TID 0000.0001) // =======================================================
(PID.TID 0000.0001) // Begin MONITOR dynamic field statistics
(PID.TID 0000.0001) // =======================================================
(PID.TID 0000.0001) %MON time_tsnumber                =                    85
(PID.TID 0000.0001) %MON time_secondsf                =   7.6500000000000E+04
(PID.TID 0000.0001) %MON dynstat_eta_max              =   1.5093486554462E+00
(PID.TID 0000.0001) %MON dynstat_eta_min              =  -6.8416818594249E-01
(PID.TID 0000.0001) %MON dynstat_eta_mean             =   4.5228200679575E-02
(PID.TID 0000.0001) %MON dynstat_eta_sd               =   7.1036927917253E-02
(PID.TID 0000.0001) %MON dynstat_eta_del2             =   1.1140153216017E-03
(PID.TID 0000.0001) %MON dynstat_uvel_max             =   3.5664265763763E-01
(PID.TID 0000.0001) %MON dynstat_uvel_min             =  -5.7302512690274E-01
(PID.TID 0000.0001) %MON dynstat_uvel_mean            =  -1.2468998309586E-04
(PID.TID 0000.0001) %MON dynstat_uvel_sd              =   5.5897847595730E-03
(PID.TID 0000.0001) %MON dynstat_uvel_del2            =   7.0511954702021E-05
(PID.TID 0000.0001) %MON dynstat_vvel_max             =   3.5280747737511E-01
(PID.TID 0000.0001) %MON dynstat_vvel_min             =  -4.4463924710980E-01
(PID.TID 0000.0001) %MON dynstat_vvel_mean            =   4.7954406729033E-04
(PID.TID 0000.0001) %MON dynstat_vvel_sd              =   5.8244225103933E-03
(PID.TID 0000.0001) %MON dynstat_vvel_del2            =   7.6825534765193E-05
(PID.TID 0000.0001) %MON dynstat_wvel_max             =   1.4403133618794E-04
(PID.TID 0000.0001) %MON dynstat_wvel_min             =  -1.1777595406632E-04
(PID.TID 0000.0001) %MON dynstat_wvel_mean            =  -1.0459590123333E-07
(PID.TID 0000.0001) %MON dynstat_wvel_sd              =   6.2022841753822E-06
(PID.TID 0000.0001) %MON dynstat_wvel_del2            =   7.3830515310872E-08
(PID.TID 0000.0001) %MON dynstat_theta_max            =   2.2061073364613E+01
(PID.TID 0000.0001) %MON dynstat_theta_min            =   1.6074586343874E+01
(PID.TID 0000.0001) %MON dynstat_theta_mean           =   1.9997952709955E+01
(PID.TID 0000.0001) %MON dynstat_theta_sd             =   2.7646347533387E-02
(PID.TID 0000.0001) %MON dynstat_theta_del2           =   3.8389891358768E-04
(PID.TID 0000.0001) %MON dynstat_salt_max             =   3.5078268581320E+01
(PID.TID 0000.0001) %MON dynstat_salt_min             =   2.8487736302354E+01
(PID.TID 0000.0001) %MON dynstat_salt_mean            =   3.4999563129885E+01
(PID.TID 0000.0001) %MON dynstat_salt_sd              =   3.2072114571505E-02
(PID.TID 0000.0001) %MON dynstat_salt_del2            =   8.4357497853011E-04
(PID.TID 0000.0001) %MON dynstat_sst_max              =   2.2061073364613E+01
(PID.TID 0000.0001) %MON dynstat_sst_min              =   1.6074586343874E+01
(PID.TID 0000.0001) %MON dynstat_sst_mean             =   2.0072566915523E+01
(PID.TID 0000.0001) %MON dynstat_sst_sd               =   2.0141274042547E-01
(PID.TID 0000.0001) %MON dynstat_sst_del2             =   4.5034275973096E-03
(PID.TID 0000.0001) %MON dynstat_sss_max              =   3.5078268581320E+01
(PID.TID 0000.0001) %MON dynstat_sss_min              =   2.8487736302354E+01
(PID.TID 0000.0001) %MON dynstat_sss_mean             =   3.4977892071300E+01
(PID.TID 0000.0001) %MON dynstat_sss_sd               =   2.7384813755820E-01
(PID.TID 0000.0001) %MON dynstat_sss_del2             =   1.0594496550709E-02
(PID.TID 0000.0001) %MON forcing_qnet_max             =   2.8945217798648E+03
(PID.TID 0000.0001) %MON forcing_qnet_min             =  -3.0392456054688E+03
(PID.TID 0000.0001) %MON forcing_qnet_mean            =  -2.8146622878309E+01
(PID.TID 0000.0001) %MON forcing_qnet_sd              =   4.4774631147384E+02
(PID.TID 0000.0001) %MON forcing_qnet_del2            =   5.4052127677790E+00
(PID.TID 0000.0001) %MON forcing_qsw_max              =   0.0000000000000E+00
(PID.TID 0000.0001) %MON forcing_qsw_min              =  -1.0553426699694E+02
(PID.TID 0000.0001) %MON forcing_qsw_mean             =  -1.9789771486871E+01
(PID.TID 0000.0001) %MON forcing_qsw_sd               =   2.8520869763184E+01
(PID.TID 0000.0001) %MON forcing_qsw_del2             =   1.4427287413847E-01
(PID.TID 0000.0001) %MON forcing_empmr_max            =   4.6485923230648E-03
(PID.TID 0000.0001) %MON forcing_empmr_min            =  -6.6804707050323E-02
(PID.TID 0000.0001) %MON forcing_empmr_mean           =  -3.4668214656470E-04
(PID.TID 0000.0001) %MON forcing_empmr_sd             =   2.9834764007283E-03
(PID.TID 0000.0001) %MON forcing_empmr_del2           =   1.1659486360108E-04
(PID.TID 0000.0001) %MON forcing_fu_max               =   5.1860088786886E-01
(PID.TID 0000.0001) %MON forcing_fu_min               =  -6.0117783822126E-01
(PID.TID 0000.0001) %MON forcing_fu_mean              =  -1.1115051736490E-03
(PID.TID 0000.0001) %MON forcing_fu_sd                =   8.0133088525731E-02
(PID.TID 0000.0001) %MON forcing_fu_del2              =   6.8456332483346E-04
(PID.TID 0000.0001) %MON forcing_fv_max               =   3.5292839119079E-01
(PID.TID 0000.0001) %MON forcing_fv_min               =  -3.2132822425053E-01
(PID.TID 0000.0001) %MON forcing_fv_mean              =  -6.6491218321804E-03
(PID.TID 0000.0001) %MON forcing_fv_sd                =   7.1109750944947E-02
(PID.TID 0000.0001) %MON forcing_fv_del2              =   5.7021124751334E-04
(PID.TID 0000.0001) %MON trAdv_CFL_u_max              =   1.6601118359789E-03
(PID.TID 0000.0001) %MON trAdv_CFL_v_max              =   1.4225177819643E-03
(PID.TID 0000.0001) %MON trAdv_CFL_w_max              =   1.2094755701633E-03
(PID.TID 0000.0001) %MON advcfl_uvel_max              =   1.6530858299283E-03
(PID.TID 0000.0001) %MON advcfl_vvel_max              =   1.4718038755863E-03
(PID.TID 0000.0001) %MON advcfl_wvel_max              =   2.3236419843591E-03
(PID.TID 0000.0001) %MON advcfl_W_hf_max              =   1.3119639431647E-03
(PID.TID 0000.0001) %MON pe_b_mean                    =   9.4475198374662E-06
(PID.TID 0000.0001) %MON ke_max                       =   1.1171889751827E-01
(PID.TID 0000.0001) %MON ke_mean                      =   3.0208446026618E-05
(PID.TID 0000.0001) %MON ke_vol                       =   1.3398187936069E+18
(PID.TID 0000.0001) %MON vort_r_min                   =  -2.4130179637107E-06
(PID.TID 0000.0001) %MON vort_r_max                   =   2.3603168227573E-06
(PID.TID 0000.0001) %MON vort_a_mean                  =  -2.0549865324846E-05
(PID.TID 0000.0001) %MON vort_a_sd                    =   7.5259407391967E-05
(PID.TID 0000.0001) %MON vort_p_mean                  =  -2.4783217483797E-05
(PID.TID 0000.0001) %MON vort_p_sd                    =   1.2810505061794E-04
(PID.TID 0000.0001) %MON surfExpan_theta_mean         =  -3.3629612962471E-07
(PID.TID 0000.0001) %MON surfExpan_salt_mean          =   7.9102813102942E-07
(PID.TID 0000.0001) // =======================================================
(PID.TID 0000.0001) // End MONITOR dynamic field statistics
(PID.TID 0000.0001) // =======================================================
(PID.TID 0000.0001) // =======================================================
(PID.TID 0000.0001) // Begin MONITOR SEAICE statistics
(PID.TID 0000.0001) // =======================================================
(PID.TID 0000.0001) %MON seaice_tsnumber              =                    85
(PID.TID 0000.0001) %MON seaice_time_sec              =   7.6500000000000E+04
(PID.TID 0000.0001) %MON seaice_uice_max              =   3.6400755825205E-01
(PID.TID 0000.0001) %MON seaice_uice_min              =  -4.0642171399666E-01
(PID.TID 0000.0001) %MON seaice_uice_mean             =  -5.4026521996431E-03
(PID.TID 0000.0001) %MON seaice_uice_sd               =   4.3086878150153E-02
(PID.TID 0000.0001) %MON seaice_uice_del2             =   7.6007107599044E-04
(PID.TID 0000.0001) %MON seaice_vice_max              =   3.3145765439005E-01
(PID.TID 0000.0001) %MON seaice_vice_min              =  -4.4077595909612E-01
(PID.TID 0000.0001) %MON seaice_vice_mean             =  -9.1431805624346E-03
(PID.TID 0000.0001) %MON seaice_vice_sd               =   4.3452437227702E-02
(PID.TID 0000.0001) %MON seaice_vice_del2             =   8.1514909539137E-04
(PID.TID 0000.0001) %MON seaice_area_max              =   9.7855377414231E-01
(PID.TID 0000.0001) %MON seaice_area_min              =   0.0000000000000E+00
(PID.TID 0000.0001) %MON seaice_area_mean             =   6.0919499751797E-02
(PID.TID 0000.0001) %MON seaice_area_sd               =   2.1490232705365E-01
(PID.TID 0000.0001) %MON seaice_area_del2             =   1.4387845657497E-03
(PID.TID 0000.0001) %MON seaice_heff_max              =   8.2159126609979E+00
(PID.TID 0000.0001) %MON seaice_heff_min              =   0.0000000000000E+00
(PID.TID 0000.0001) %MON seaice_heff_mean             =   1.9113954587184E-01
(PID.TID 0000.0001) %MON seaice_heff_sd               =   9.3575244070430E-01
(PID.TID 0000.0001) %MON seaice_heff_del2             =   6.0932234241713E-03
(PID.TID 0000.0001) %MON seaice_hsnow_max             =   1.9712648811628E+00
(PID.TID 0000.0001) %MON seaice_hsnow_min             =   0.0000000000000E+00
(PID.TID 0000.0001) %MON seaice_hsnow_mean            =   2.1214549203223E-02
(PID.TID 0000.0001) %MON seaice_hsnow_sd              =   1.1458572875011E-01
(PID.TID 0000.0001) %MON seaice_hsnow_del2            =   1.4102999044378E-03
(PID.TID 0000.0001) // =======================================================
(PID.TID 0000.0001) // End MONITOR SEAICE statistics
(PID.TID 0000.0001) // =======================================================
 Computing Diagnostic #    211  SIarea       Counter:       1   Parms: SM      M1      
 Computing Diagnostic #    214  SIheff       Counter:       1   Parms: SM      M1      
 Computing Diagnostic #    216  SIhsnow      Counter:       1   Parms: SM      M1      
 Computing Diagnostic #     83  sIceLoad     Counter:       1   Parms: SM      U1      
 Computing Diagnostic #    220  SIuice       Counter:       1   Parms: UU      M1      
           Vector  Mate for  SIuice       Diagnostic #    221  SIvice   exists 
 Computing Diagnostic #    221  SIvice       Counter:       1   Parms: VV      M1      
           Vector  Mate for  SIvice       Diagnostic #    220  SIuice   exists 
 Computing Diagnostic #    222  SItaux       Counter:       1   Parms: UU      U1      
           Vector  Mate for  SItaux       Diagnostic #    223  SItauy   exists 
 Computing Diagnostic #    223  SItauy       Counter:       1   Parms: VV      U1      
           Vector  Mate for  SItauy       Diagnostic #    222  SItaux   exists 
 Computing Diagnostic #    284  CPLoWGHT     Counter:       1   Parms: SM      M1      
 Computing Diagnostic #    282  SIareaN      Counter:       1   Parms: SM      MX      
 Computing Diagnostic #    281  SIheffN      Counter:       1   Parms: SM      MX      
 Computing Diagnostic #    283  SIhsnowN     Counter:       1   Parms: SM      MX      
 Computing Diagnostic #    287  SIqSnow      Counter:       1   Parms: SM      MX      
 Computing Diagnostic #    288  SImeltPd     Counter:       1   Parms: SM      MX      
 Computing Diagnostic #    285  SItIces      Counter:       1   Parms: SM      MX      
 Computing Diagnostic #    289  SIiceAge     Counter:       1   Parms: SM      MX      
 Computing Diagnostic #    290  SI_dArea     Counter:       1   Parms: SM      MX      
 Computing Diagnostic #    291  SI_dHeff     Counter:       1   Parms: SM      MX      
 Computing Diagnostic #    292  SI_dHsnw     Counter:       1   Parms: SM      MX      
 Computing Diagnostic #    295  SI_dQSnw     Counter:       1   Parms: SM      MX      
 Computing Diagnostic #    286  SIqIce       Counter:       1   Parms: SM      MX      
 Computing Diagnostic #    294  SI_dQIce     Counter:       1   Parms: SM      MX      
 SEAICE_LSR: Residual Initial ipass,Uice,Vice=    1  3.42367922E-03  1.66715340E-03
 SEAICE_LSR (ipass=   1) iters,dU,Resid=     4  2.75532533E-05  6.24845127E-05
 SEAICE_LSR (ipass=   1) iters,dV,Resid=     4  6.19682392E-06  9.30826059E-06
 SEAICE_LSR: Residual Initial ipass,Uice,Vice=    2  2.23034513E-03  1.27044000E-03
 SEAICE_LSR (ipass=   2) iters,dU,Resid=     4  1.24386763E-05  3.01801344E-05
 SEAICE_LSR (ipass=   2) iters,dV,Resid=     4  3.89593620E-06  7.20630991E-06
 cg2d: Sum(rhs),rhsMax =  -1.17838975258511E+02  3.32492578638943E+01
(PID.TID 0000.0001)      cg2d_init_res =   2.20178520694151E-01
(PID.TID 0000.0001)      cg2d_iters(min,last) =      -1      10
(PID.TID 0000.0001)      cg2d_last_res =   6.23528249138176E-08
(PID.TID 0000.0001) // =======================================================
(PID.TID 0000.0001) // Begin MONITOR dynamic field statistics
(PID.TID 0000.0001) // =======================================================
(PID.TID 0000.0001) %MON time_tsnumber                =                    86
(PID.TID 0000.0001) %MON time_secondsf                =   7.7400000000000E+04
(PID.TID 0000.0001) %MON dynstat_eta_max              =   1.4492219369079E+00
(PID.TID 0000.0001) %MON dynstat_eta_min              =  -6.3887208555412E-01
(PID.TID 0000.0001) %MON dynstat_eta_mean             =   4.5527320057360E-02
(PID.TID 0000.0001) %MON dynstat_eta_sd               =   7.0337225715314E-02
(PID.TID 0000.0001) %MON dynstat_eta_del2             =   1.0766652789535E-03
(PID.TID 0000.0001) %MON dynstat_uvel_max             =   3.4891240392285E-01
(PID.TID 0000.0001) %MON dynstat_uvel_min             =  -5.7304503711370E-01
(PID.TID 0000.0001) %MON dynstat_uvel_mean            =  -1.3302268025177E-04
(PID.TID 0000.0001) %MON dynstat_uvel_sd              =   5.5795742074006E-03
(PID.TID 0000.0001) %MON dynstat_uvel_del2            =   7.0764707776642E-05
(PID.TID 0000.0001) %MON dynstat_vvel_max             =   3.5780913757175E-01
(PID.TID 0000.0001) %MON dynstat_vvel_min             =  -4.3264351568133E-01
(PID.TID 0000.0001) %MON dynstat_vvel_mean            =   4.6079746142232E-04
(PID.TID 0000.0001) %MON dynstat_vvel_sd              =   5.8658210220867E-03
(PID.TID 0000.0001) %MON dynstat_vvel_del2            =   7.6507135274526E-05
(PID.TID 0000.0001) %MON dynstat_wvel_max             =   1.4207869329706E-04
(PID.TID 0000.0001) %MON dynstat_wvel_min             =  -1.1299524542114E-04
(PID.TID 0000.0001) %MON dynstat_wvel_mean            =  -1.0037465070549E-07
(PID.TID 0000.0001) %MON dynstat_wvel_sd              =   6.1560599802618E-06
(PID.TID 0000.0001) %MON dynstat_wvel_del2            =   7.3389733715487E-08
(PID.TID 0000.0001) %MON dynstat_theta_max            =   2.2075016343781E+01
(PID.TID 0000.0001) %MON dynstat_theta_min            =   1.6076681848650E+01
(PID.TID 0000.0001) %MON dynstat_theta_mean           =   1.9997954394596E+01
(PID.TID 0000.0001) %MON dynstat_theta_sd             =   2.7766623435594E-02
(PID.TID 0000.0001) %MON dynstat_theta_del2           =   3.8498841667579E-04
(PID.TID 0000.0001) %MON dynstat_salt_max             =   3.5078265755023E+01
(PID.TID 0000.0001) %MON dynstat_salt_min             =   2.8461944830267E+01
(PID.TID 0000.0001) %MON dynstat_salt_mean            =   3.4999560599645E+01
(PID.TID 0000.0001) %MON dynstat_salt_sd              =   3.2205243717176E-02
(PID.TID 0000.0001) %MON dynstat_salt_del2            =   8.4671636901793E-04
(PID.TID 0000.0001) %MON dynstat_sst_max              =   2.2075016343781E+01
(PID.TID 0000.0001) %MON dynstat_sst_min              =   1.6076681848650E+01
(PID.TID 0000.0001) %MON dynstat_sst_mean             =   2.0073299326087E+01
(PID.TID 0000.0001) %MON dynstat_sst_sd               =   2.0224924588766E-01
(PID.TID 0000.0001) %MON dynstat_sst_del2             =   4.5174904852098E-03
(PID.TID 0000.0001) %MON dynstat_sss_max              =   3.5078265755023E+01
(PID.TID 0000.0001) %MON dynstat_sss_min              =   2.8461944830267E+01
(PID.TID 0000.0001) %MON dynstat_sss_mean             =   3.4977766890522E+01
(PID.TID 0000.0001) %MON dynstat_sss_sd               =   2.7498637872287E-01
(PID.TID 0000.0001) %MON dynstat_sss_del2             =   1.0633973210527E-02
(PID.TID 0000.0001) %MON forcing_qnet_max             =   2.9938308717514E+03
(PID.TID 0000.0001) %MON forcing_qnet_min             =  -3.0026777343750E+03
(PID.TID 0000.0001) %MON forcing_qnet_mean            =  -2.7825407692628E+01
(PID.TID 0000.0001) %MON forcing_qnet_sd              =   4.4612612779547E+02
(PID.TID 0000.0001) %MON forcing_qnet_del2            =   5.3731561191284E+00
(PID.TID 0000.0001) %MON forcing_qsw_max              =   0.0000000000000E+00
(PID.TID 0000.0001) %MON forcing_qsw_min              =  -1.0534212385380E+02
(PID.TID 0000.0001) %MON forcing_qsw_mean             =  -1.9990719712708E+01
(PID.TID 0000.0001) %MON forcing_qsw_sd               =   2.8694968744527E+01
(PID.TID 0000.0001) %MON forcing_qsw_del2             =   1.4413784266674E-01
(PID.TID 0000.0001) %MON forcing_empmr_max            =   4.6008662320673E-03
(PID.TID 0000.0001) %MON forcing_empmr_min            =  -6.6116653382778E-02
(PID.TID 0000.0001) %MON forcing_empmr_mean           =  -3.4398728445268E-04
(PID.TID 0000.0001) %MON forcing_empmr_sd             =   2.9539968814183E-03
(PID.TID 0000.0001) %MON forcing_empmr_del2           =   1.1541438067682E-04
(PID.TID 0000.0001) %MON forcing_fu_max               =   5.1227922324235E-01
(PID.TID 0000.0001) %MON forcing_fu_min               =  -5.9849094000686E-01
(PID.TID 0000.0001) %MON forcing_fu_mean              =  -1.2495604321266E-03
(PID.TID 0000.0001) %MON forcing_fu_sd                =   7.9703756002707E-02
(PID.TID 0000.0001) %MON forcing_fu_del2              =   6.8096277099483E-04
(PID.TID 0000.0001) %MON forcing_fv_max               =   3.4681901452307E-01
(PID.TID 0000.0001) %MON forcing_fv_min               =  -3.1913152738789E-01
(PID.TID 0000.0001) %MON forcing_fv_mean              =  -6.6200286760153E-03
(PID.TID 0000.0001) %MON forcing_fv_sd                =   7.1053873509033E-02
(PID.TID 0000.0001) %MON forcing_fv_del2              =   5.6788884418674E-04
(PID.TID 0000.0001) %MON trAdv_CFL_u_max              =   1.6613788161903E-03
(PID.TID 0000.0001) %MON trAdv_CFL_v_max              =   1.4214498355143E-03
(PID.TID 0000.0001) %MON trAdv_CFL_w_max              =   1.1644707670196E-03
(PID.TID 0000.0001) %MON advcfl_uvel_max              =   1.6531432677021E-03
(PID.TID 0000.0001) %MON advcfl_vvel_max              =   1.4711101356843E-03
(PID.TID 0000.0001) %MON advcfl_wvel_max              =   2.2997096828792E-03
(PID.TID 0000.0001) %MON advcfl_W_hf_max              =   1.2976725633827E-03
(PID.TID 0000.0001) %MON pe_b_mean                    =   9.3519052435643E-06
(PID.TID 0000.0001) %MON ke_max                       =   1.1544534589431E-01
(PID.TID 0000.0001) %MON ke_mean                      =   3.0373403634290E-05
(PID.TID 0000.0001) %MON ke_vol                       =   1.3398189033051E+18
(PID.TID 0000.0001) %MON vort_r_min                   =  -2.4194820071873E-06
(PID.TID 0000.0001) %MON vort_r_max                   =   2.3701141008517E-06
(PID.TID 0000.0001) %MON vort_a_mean                  =  -2.0549865324846E-05
(PID.TID 0000.0001) %MON vort_a_sd                    =   7.5259405271937E-05
(PID.TID 0000.0001) %MON vort_p_mean                  =  -2.4783215488040E-05
(PID.TID 0000.0001) %MON vort_p_sd                    =   1.2810505008522E-04
(PID.TID 0000.0001) %MON surfExpan_theta_mean         =  -3.2770365640008E-07
(PID.TID 0000.0001) %MON surfExpan_salt_mean          =   7.8201894027231E-07
(PID.TID 0000.0001) // =======================================================
(PID.TID 0000.0001) // End MONITOR dynamic field statistics
(PID.TID 0000.0001) // =======================================================
(PID.TID 0000.0001) // =======================================================
(PID.TID 0000.0001) // Begin MONITOR SEAICE statistics
(PID.TID 0000.0001) // =======================================================
(PID.TID 0000.0001) %MON seaice_tsnumber              =                    86
(PID.TID 0000.0001) %MON seaice_time_sec              =   7.7400000000000E+04
(PID.TID 0000.0001) %MON seaice_uice_max              =   3.5951606682416E-01
(PID.TID 0000.0001) %MON seaice_uice_min              =  -4.1079999757141E-01
(PID.TID 0000.0001) %MON seaice_uice_mean             =  -5.5574804636246E-03
(PID.TID 0000.0001) %MON seaice_uice_sd               =   4.2933544975800E-02
(PID.TID 0000.0001) %MON seaice_uice_del2             =   7.6143571655384E-04
(PID.TID 0000.0001) %MON seaice_vice_max              =   3.4193221455134E-01
(PID.TID 0000.0001) %MON seaice_vice_min              =  -4.3573541445481E-01
(PID.TID 0000.0001) %MON seaice_vice_mean             =  -8.8994952794435E-03
(PID.TID 0000.0001) %MON seaice_vice_sd               =   4.4086359677146E-02
(PID.TID 0000.0001) %MON seaice_vice_del2             =   8.1664706249159E-04
(PID.TID 0000.0001) %MON seaice_area_max              =   9.7816867088479E-01
(PID.TID 0000.0001) %MON seaice_area_min              =   0.0000000000000E+00
(PID.TID 0000.0001) %MON seaice_area_mean             =   6.0830978095612E-02
(PID.TID 0000.0001) %MON seaice_area_sd               =   2.1466405422150E-01
(PID.TID 0000.0001) %MON seaice_area_del2             =   1.4350692707220E-03
(PID.TID 0000.0001) %MON seaice_heff_max              =   8.2133010499969E+00
(PID.TID 0000.0001) %MON seaice_heff_min              =   0.0000000000000E+00
(PID.TID 0000.0001) %MON seaice_heff_mean             =   1.9097192894334E-01
(PID.TID 0000.0001) %MON seaice_heff_sd               =   9.3526460147017E-01
(PID.TID 0000.0001) %MON seaice_heff_del2             =   6.0916390964041E-03
(PID.TID 0000.0001) %MON seaice_hsnow_max             =   1.9705431404136E+00
(PID.TID 0000.0001) %MON seaice_hsnow_min             =   0.0000000000000E+00
(PID.TID 0000.0001) %MON seaice_hsnow_mean            =   2.1195666791003E-02
(PID.TID 0000.0001) %MON seaice_hsnow_sd              =   1.1452659333853E-01
(PID.TID 0000.0001) %MON seaice_hsnow_del2            =   1.4097135241155E-03
(PID.TID 0000.0001) // =======================================================
(PID.TID 0000.0001) // End MONITOR SEAICE statistics
(PID.TID 0000.0001) // =======================================================
 SEAICE_LSR: Residual Initial ipass,Uice,Vice=    1  3.27772902E-03  1.48385119E-03
 SEAICE_LSR (ipass=   1) iters,dU,Resid=     4  2.61628276E-05  6.14473407E-05
 SEAICE_LSR (ipass=   1) iters,dV,Resid=     4  5.13072387E-06  1.04760646E-05
 SEAICE_LSR: Residual Initial ipass,Uice,Vice=    2  2.07312977E-03  1.10573458E-03
 SEAICE_LSR (ipass=   2) iters,dU,Resid=     4  1.34080314E-05  3.14501388E-05
 SEAICE_LSR (ipass=   2) iters,dV,Resid=     4  3.90204994E-06  8.03195273E-06
 cg2d: Sum(rhs),rhsMax =  -1.24259971699913E+02  3.17372268994700E+01
(PID.TID 0000.0001)      cg2d_init_res =   2.28518324355871E-01
(PID.TID 0000.0001)      cg2d_iters(min,last) =      -1      10
(PID.TID 0000.0001)      cg2d_last_res =   4.80854973609202E-08
(PID.TID 0000.0001) // =======================================================
(PID.TID 0000.0001) // Begin MONITOR dynamic field statistics
(PID.TID 0000.0001) // =======================================================
(PID.TID 0000.0001) %MON time_tsnumber                =                    87
(PID.TID 0000.0001) %MON time_secondsf                =   7.8300000000000E+04
(PID.TID 0000.0001) %MON dynstat_eta_max              =   1.3836249584611E+00
(PID.TID 0000.0001) %MON dynstat_eta_min              =  -5.8437547207966E-01
(PID.TID 0000.0001) %MON dynstat_eta_mean             =   4.5824886753528E-02
(PID.TID 0000.0001) %MON dynstat_eta_sd               =   6.9735403488958E-02
(PID.TID 0000.0001) %MON dynstat_eta_del2             =   1.0489652060716E-03
(PID.TID 0000.0001) %MON dynstat_uvel_max             =   3.3834108892446E-01
(PID.TID 0000.0001) %MON dynstat_uvel_min             =  -5.7067301248612E-01
(PID.TID 0000.0001) %MON dynstat_uvel_mean            =  -1.4059361081123E-04
(PID.TID 0000.0001) %MON dynstat_uvel_sd              =   5.5687385630747E-03
(PID.TID 0000.0001) %MON dynstat_uvel_del2            =   7.1002066096245E-05
(PID.TID 0000.0001) %MON dynstat_vvel_max             =   3.5859370341310E-01
(PID.TID 0000.0001) %MON dynstat_vvel_min             =  -4.1445407081069E-01
(PID.TID 0000.0001) %MON dynstat_vvel_mean            =   4.4424334944950E-04
(PID.TID 0000.0001) %MON dynstat_vvel_sd              =   5.8998526333431E-03
(PID.TID 0000.0001) %MON dynstat_vvel_del2            =   7.5995958161597E-05
(PID.TID 0000.0001) %MON dynstat_wvel_max             =   1.3993443529882E-04
(PID.TID 0000.0001) %MON dynstat_wvel_min             =  -1.0843490857629E-04
(PID.TID 0000.0001) %MON dynstat_wvel_mean            =  -9.7612547546126E-08
(PID.TID 0000.0001) %MON dynstat_wvel_sd              =   6.1114450685715E-06
(PID.TID 0000.0001) %MON dynstat_wvel_del2            =   7.2938995550944E-08
(PID.TID 0000.0001) %MON dynstat_theta_max            =   2.2088776980018E+01
(PID.TID 0000.0001) %MON dynstat_theta_min            =   1.6078834169869E+01
(PID.TID 0000.0001) %MON dynstat_theta_mean           =   1.9997956049706E+01
(PID.TID 0000.0001) %MON dynstat_theta_sd             =   2.7886081134119E-02
(PID.TID 0000.0001) %MON dynstat_theta_del2           =   3.8606621547122E-04
(PID.TID 0000.0001) %MON dynstat_salt_max             =   3.5078263240919E+01
(PID.TID 0000.0001) %MON dynstat_salt_min             =   2.8436679535556E+01
(PID.TID 0000.0001) %MON dynstat_salt_mean            =   3.4999558087484E+01
(PID.TID 0000.0001) %MON dynstat_salt_sd              =   3.2335752609233E-02
(PID.TID 0000.0001) %MON dynstat_salt_del2            =   8.4978349752453E-04
(PID.TID 0000.0001) %MON dynstat_sst_max              =   2.2088776980018E+01
(PID.TID 0000.0001) %MON dynstat_sst_min              =   1.6078834169869E+01
(PID.TID 0000.0001) %MON dynstat_sst_mean             =   2.0074009726079E+01
(PID.TID 0000.0001) %MON dynstat_sst_sd               =   2.0308132018344E-01
(PID.TID 0000.0001) %MON dynstat_sst_del2             =   4.5312588377044E-03
(PID.TID 0000.0001) %MON dynstat_sss_max              =   3.5078263240919E+01
(PID.TID 0000.0001) %MON dynstat_sss_min              =   2.8436679535556E+01
(PID.TID 0000.0001) %MON dynstat_sss_mean             =   3.4977637374644E+01
(PID.TID 0000.0001) %MON dynstat_sss_sd               =   2.7610068527652E-01
(PID.TID 0000.0001) %MON dynstat_sss_del2             =   1.0672509877138E-02
(PID.TID 0000.0001) %MON forcing_qnet_max             =   3.0789423346418E+03
(PID.TID 0000.0001) %MON forcing_qnet_min             =  -2.9665500488281E+03
(PID.TID 0000.0001) %MON forcing_qnet_mean            =  -2.7344091531930E+01
(PID.TID 0000.0001) %MON forcing_qnet_sd              =   4.4482304117380E+02
(PID.TID 0000.0001) %MON forcing_qnet_del2            =   5.3565627497425E+00
(PID.TID 0000.0001) %MON forcing_qsw_max              =   0.0000000000000E+00
(PID.TID 0000.0001) %MON forcing_qsw_min              =  -1.0609904547060E+02
(PID.TID 0000.0001) %MON forcing_qsw_mean             =  -2.0144619561578E+01
(PID.TID 0000.0001) %MON forcing_qsw_sd               =   2.8836287347361E+01
(PID.TID 0000.0001) %MON forcing_qsw_del2             =   1.4370031421405E-01
(PID.TID 0000.0001) %MON forcing_empmr_max            =   4.5535340905190E-03
(PID.TID 0000.0001) %MON forcing_empmr_min            =  -6.5436154603958E-02
(PID.TID 0000.0001) %MON forcing_empmr_mean           =  -3.4220170059335E-04
(PID.TID 0000.0001) %MON forcing_empmr_sd             =   2.9247925527180E-03
(PID.TID 0000.0001) %MON forcing_empmr_del2           =   1.1423850792767E-04
(PID.TID 0000.0001) %MON forcing_fu_max               =   5.0459095406488E-01
(PID.TID 0000.0001) %MON forcing_fu_min               =  -5.9697261439220E-01
(PID.TID 0000.0001) %MON forcing_fu_mean              =  -1.3649599272856E-03
(PID.TID 0000.0001) %MON forcing_fu_sd                =   7.9358314306463E-02
(PID.TID 0000.0001) %MON forcing_fu_del2              =   6.7817636533248E-04
(PID.TID 0000.0001) %MON forcing_fv_max               =   3.4070399750439E-01
(PID.TID 0000.0001) %MON forcing_fv_min               =  -3.1474365369898E-01
(PID.TID 0000.0001) %MON forcing_fv_mean              =  -6.6101205201783E-03
(PID.TID 0000.0001) %MON forcing_fv_sd                =   7.1043808333442E-02
(PID.TID 0000.0001) %MON forcing_fv_del2              =   5.6540740863695E-04
(PID.TID 0000.0001) %MON trAdv_CFL_u_max              =   1.6557522725275E-03
(PID.TID 0000.0001) %MON trAdv_CFL_v_max              =   1.4188797409112E-03
(PID.TID 0000.0001) %MON trAdv_CFL_w_max              =   1.1934305060626E-03
(PID.TID 0000.0001) %MON advcfl_uvel_max              =   1.6463003560809E-03
(PID.TID 0000.0001) %MON advcfl_vvel_max              =   1.4691191503551E-03
(PID.TID 0000.0001) %MON advcfl_wvel_max              =   2.2760401601377E-03
(PID.TID 0000.0001) %MON advcfl_W_hf_max              =   1.2837171357662E-03
(PID.TID 0000.0001) %MON pe_b_mean                    =   9.2758170942833E-06
(PID.TID 0000.0001) %MON ke_max                       =   1.1844601914062E-01
(PID.TID 0000.0001) %MON ke_mean                      =   3.0497683865410E-05
(PID.TID 0000.0001) %MON ke_vol                       =   1.3398190121507E+18
(PID.TID 0000.0001) %MON vort_r_min                   =  -2.4246583472841E-06
(PID.TID 0000.0001) %MON vort_r_max                   =   2.3782654965133E-06
(PID.TID 0000.0001) %MON vort_a_mean                  =  -2.0549865324846E-05
(PID.TID 0000.0001) %MON vort_a_sd                    =   7.5259403588460E-05
(PID.TID 0000.0001) %MON vort_p_mean                  =  -2.4783213518368E-05
(PID.TID 0000.0001) %MON vort_p_sd                    =   1.2810504991016E-04
(PID.TID 0000.0001) %MON surfExpan_theta_mean         =  -3.1688124226741E-07
(PID.TID 0000.0001) %MON surfExpan_salt_mean          =   7.7264270228461E-07
(PID.TID 0000.0001) // =======================================================
(PID.TID 0000.0001) // End MONITOR dynamic field statistics
(PID.TID 0000.0001) // =======================================================
(PID.TID 0000.0001) // =======================================================
(PID.TID 0000.0001) // Begin MONITOR SEAICE statistics
(PID.TID 0000.0001) // =======================================================
(PID.TID 0000.0001) %MON seaice_tsnumber              =                    87
(PID.TID 0000.0001) %MON seaice_time_sec              =   7.8300000000000E+04
(PID.TID 0000.0001) %MON seaice_uice_max              =   3.5183893267999E-01
(PID.TID 0000.0001) %MON seaice_uice_min              =  -4.1260857987091E-01
(PID.TID 0000.0001) %MON seaice_uice_mean             =  -5.7137174170142E-03
(PID.TID 0000.0001) %MON seaice_uice_sd               =   4.2768769922793E-02
(PID.TID 0000.0001) %MON seaice_uice_del2             =   7.6348350488740E-04
(PID.TID 0000.0001) %MON seaice_vice_max              =   3.4806081149721E-01
(PID.TID 0000.0001) %MON seaice_vice_min              =  -4.2404278362377E-01
(PID.TID 0000.0001) %MON seaice_vice_mean             =  -8.6556336781895E-03
(PID.TID 0000.0001) %MON seaice_vice_sd               =   4.4662145612796E-02
(PID.TID 0000.0001) %MON seaice_vice_del2             =   8.1558126205457E-04
(PID.TID 0000.0001) %MON seaice_area_max              =   9.7778232738404E-01
(PID.TID 0000.0001) %MON seaice_area_min              =   0.0000000000000E+00
(PID.TID 0000.0001) %MON seaice_area_mean             =   6.0742548761292E-02
(PID.TID 0000.0001) %MON seaice_area_sd               =   2.1442607701522E-01
(PID.TID 0000.0001) %MON seaice_area_del2             =   1.4313672222075E-03
(PID.TID 0000.0001) %MON seaice_heff_max              =   8.2106897185179E+00
(PID.TID 0000.0001) %MON seaice_heff_min              =   0.0000000000000E+00
(PID.TID 0000.0001) %MON seaice_heff_mean             =   1.9080452211986E-01
(PID.TID 0000.0001) %MON seaice_heff_sd               =   9.3477686745634E-01
(PID.TID 0000.0001) %MON seaice_heff_del2             =   6.0900529739970E-03
(PID.TID 0000.0001) %MON seaice_hsnow_max             =   1.9698252705123E+00
(PID.TID 0000.0001) %MON seaice_hsnow_min             =   0.0000000000000E+00
(PID.TID 0000.0001) %MON seaice_hsnow_mean            =   2.1176907726565E-02
(PID.TID 0000.0001) %MON seaice_hsnow_sd              =   1.1446763781158E-01
(PID.TID 0000.0001) %MON seaice_hsnow_del2            =   1.4091288822366E-03
(PID.TID 0000.0001) // =======================================================
(PID.TID 0000.0001) // End MONITOR SEAICE statistics
(PID.TID 0000.0001) // =======================================================
 SEAICE_LSR: Residual Initial ipass,Uice,Vice=    1  3.12737411E-03  1.41420084E-03
 SEAICE_LSR (ipass=   1) iters,dU,Resid=     4  2.83951808E-05  6.21806207E-05
 SEAICE_LSR (ipass=   1) iters,dV,Resid=     4  5.15367165E-06  1.31876454E-05
 SEAICE_LSR: Residual Initial ipass,Uice,Vice=    2  1.94683934E-03  1.04396949E-03
 SEAICE_LSR (ipass=   2) iters,dU,Resid=     4  1.45315616E-05  3.45934987E-05
 SEAICE_LSR (ipass=   2) iters,dV,Resid=     4  3.78698693E-06  9.60877685E-06
 cg2d: Sum(rhs),rhsMax =  -1.28998329572179E+02  3.07683976205105E+01
(PID.TID 0000.0001)      cg2d_init_res =   2.32655714414508E-01
(PID.TID 0000.0001)      cg2d_iters(min,last) =      -1      10
(PID.TID 0000.0001)      cg2d_last_res =   4.57247988253874E-08
(PID.TID 0000.0001) // =======================================================
(PID.TID 0000.0001) // Begin MONITOR dynamic field statistics
(PID.TID 0000.0001) // =======================================================
(PID.TID 0000.0001) %MON time_tsnumber                =                    88
(PID.TID 0000.0001) %MON time_secondsf                =   7.9200000000000E+04
(PID.TID 0000.0001) %MON dynstat_eta_max              =   1.3198310436267E+00
(PID.TID 0000.0001) %MON dynstat_eta_min              =  -5.2175042773035E-01
(PID.TID 0000.0001) %MON dynstat_eta_mean             =   4.6120089256619E-02
(PID.TID 0000.0001) %MON dynstat_eta_sd               =   6.9230099710946E-02
(PID.TID 0000.0001) %MON dynstat_eta_del2             =   1.0310471648611E-03
(PID.TID 0000.0001) %MON dynstat_uvel_max             =   3.2530948339120E-01
(PID.TID 0000.0001) %MON dynstat_uvel_min             =  -5.6590901505360E-01
(PID.TID 0000.0001) %MON dynstat_uvel_mean            =  -1.4735901674257E-04
(PID.TID 0000.0001) %MON dynstat_uvel_sd              =   5.5577821466519E-03
(PID.TID 0000.0001) %MON dynstat_uvel_del2            =   7.1210990877784E-05
(PID.TID 0000.0001) %MON dynstat_vvel_max             =   3.5529776301688E-01
(PID.TID 0000.0001) %MON dynstat_vvel_min             =  -3.9054983469771E-01
(PID.TID 0000.0001) %MON dynstat_vvel_mean            =   4.3001950668905E-04
(PID.TID 0000.0001) %MON dynstat_vvel_sd              =   5.9263267298247E-03
(PID.TID 0000.0001) %MON dynstat_vvel_del2            =   7.5340595467339E-05
(PID.TID 0000.0001) %MON dynstat_wvel_max             =   1.3774371847005E-04
(PID.TID 0000.0001) %MON dynstat_wvel_min             =  -1.0410544324078E-04
(PID.TID 0000.0001) %MON dynstat_wvel_mean            =  -9.5176435478252E-08
(PID.TID 0000.0001) %MON dynstat_wvel_sd              =   6.0698871424861E-06
(PID.TID 0000.0001) %MON dynstat_wvel_del2            =   7.2487213289316E-08
(PID.TID 0000.0001) %MON dynstat_theta_max            =   2.2102353198917E+01
(PID.TID 0000.0001) %MON dynstat_theta_min            =   1.6081086329334E+01
(PID.TID 0000.0001) %MON dynstat_theta_mean           =   1.9997957664087E+01
(PID.TID 0000.0001) %MON dynstat_theta_sd             =   2.8005878848405E-02
(PID.TID 0000.0001) %MON dynstat_theta_del2           =   3.8715046668944E-04
(PID.TID 0000.0001) %MON dynstat_salt_max             =   3.5078261052169E+01
(PID.TID 0000.0001) %MON dynstat_salt_min             =   2.8411928994682E+01
(PID.TID 0000.0001) %MON dynstat_salt_mean            =   3.4999555601845E+01
(PID.TID 0000.0001) %MON dynstat_salt_sd              =   3.2463830748925E-02
(PID.TID 0000.0001) %MON dynstat_salt_del2            =   8.5277967539293E-04
(PID.TID 0000.0001) %MON dynstat_sst_max              =   2.2102353198917E+01
(PID.TID 0000.0001) %MON dynstat_sst_min              =   1.6081086329334E+01
(PID.TID 0000.0001) %MON dynstat_sst_mean             =   2.0074722691592E+01
(PID.TID 0000.0001) %MON dynstat_sst_sd               =   2.0391608763500E-01
(PID.TID 0000.0001) %MON dynstat_sst_del2             =   4.5451878517503E-03
(PID.TID 0000.0001) %MON dynstat_sss_max              =   3.5078261052169E+01
(PID.TID 0000.0001) %MON dynstat_sss_min              =   2.8411928994682E+01
(PID.TID 0000.0001) %MON dynstat_sss_mean             =   3.4977512239827E+01
(PID.TID 0000.0001) %MON dynstat_sss_sd               =   2.7719368778623E-01
(PID.TID 0000.0001) %MON dynstat_sss_del2             =   1.0710158708308E-02
(PID.TID 0000.0001) %MON forcing_qnet_max             =   3.1803634918256E+03
(PID.TID 0000.0001) %MON forcing_qnet_min             =  -2.9299602050781E+03
(PID.TID 0000.0001) %MON forcing_qnet_mean            =  -2.6671482643751E+01
(PID.TID 0000.0001) %MON forcing_qnet_sd              =   4.4377587207832E+02
(PID.TID 0000.0001) %MON forcing_qnet_del2            =   5.3537836361061E+00
(PID.TID 0000.0001) %MON forcing_qsw_max              =   0.0000000000000E+00
(PID.TID 0000.0001) %MON forcing_qsw_min              =  -1.0642928376379E+02
(PID.TID 0000.0001) %MON forcing_qsw_mean             =  -2.0244612127879E+01
(PID.TID 0000.0001) %MON forcing_qsw_sd               =   2.8946947596427E+01
(PID.TID 0000.0001) %MON forcing_qsw_del2             =   1.4294779507545E-01
(PID.TID 0000.0001) %MON forcing_empmr_max            =   4.5066941529512E-03
(PID.TID 0000.0001) %MON forcing_empmr_min            =  -6.4762368798256E-02
(PID.TID 0000.0001) %MON forcing_empmr_mean           =  -3.3948287855445E-04
(PID.TID 0000.0001) %MON forcing_empmr_sd             =   2.8959351075956E-03
(PID.TID 0000.0001) %MON forcing_empmr_del2           =   1.1307401876439E-04
(PID.TID 0000.0001) %MON forcing_fu_max               =   5.0168952945198E-01
(PID.TID 0000.0001) %MON forcing_fu_min               =  -5.9616626362961E-01
(PID.TID 0000.0001) %MON forcing_fu_mean              =  -1.4775575726435E-03
(PID.TID 0000.0001) %MON forcing_fu_sd                =   7.9110084021465E-02
(PID.TID 0000.0001) %MON forcing_fu_del2              =   6.7625703103353E-04
(PID.TID 0000.0001) %MON forcing_fv_max               =   3.3508139259534E-01
(PID.TID 0000.0001) %MON forcing_fv_min               =  -3.1325822572824E-01
(PID.TID 0000.0001) %MON forcing_fv_mean              =  -6.6338917980209E-03
(PID.TID 0000.0001) %MON forcing_fv_sd                =   7.1076496381037E-02
(PID.TID 0000.0001) %MON forcing_fv_del2              =   5.6364233022771E-04
(PID.TID 0000.0001) %MON trAdv_CFL_u_max              =   1.6432083208350E-03
(PID.TID 0000.0001) %MON trAdv_CFL_v_max              =   1.4146190269077E-03
(PID.TID 0000.0001) %MON trAdv_CFL_w_max              =   1.2105993524227E-03
(PID.TID 0000.0001) %MON advcfl_uvel_max              =   1.6325569855379E-03
(PID.TID 0000.0001) %MON advcfl_vvel_max              =   1.4656461822457E-03
(PID.TID 0000.0001) %MON advcfl_wvel_max              =   2.2526041321132E-03
(PID.TID 0000.0001) %MON advcfl_W_hf_max              =   1.2683865748970E-03
(PID.TID 0000.0001) %MON pe_b_mean                    =   9.2184299925811E-06
(PID.TID 0000.0001) %MON ke_max                       =   1.2066655627532E-01
(PID.TID 0000.0001) %MON ke_mean                      =   3.0582065818604E-05
(PID.TID 0000.0001) %MON ke_vol                       =   1.3398191204313E+18
(PID.TID 0000.0001) %MON vort_r_min                   =  -2.4282527835627E-06
(PID.TID 0000.0001) %MON vort_r_max                   =   2.3841687713799E-06
(PID.TID 0000.0001) %MON vort_a_mean                  =  -2.0549865324846E-05
(PID.TID 0000.0001) %MON vort_a_sd                    =   7.5259402335010E-05
(PID.TID 0000.0001) %MON vort_p_mean                  =  -2.4783211566739E-05
(PID.TID 0000.0001) %MON vort_p_sd                    =   1.2810504956476E-04
(PID.TID 0000.0001) %MON surfExpan_theta_mean         =  -3.0417905849356E-07
(PID.TID 0000.0001) %MON surfExpan_salt_mean          =   7.6297250235548E-07
(PID.TID 0000.0001) // =======================================================
(PID.TID 0000.0001) // End MONITOR dynamic field statistics
(PID.TID 0000.0001) // =======================================================
(PID.TID 0000.0001) // =======================================================
(PID.TID 0000.0001) // Begin MONITOR SEAICE statistics
(PID.TID 0000.0001) // =======================================================
(PID.TID 0000.0001) %MON seaice_tsnumber              =                    88
(PID.TID 0000.0001) %MON seaice_time_sec              =   7.9200000000000E+04
(PID.TID 0000.0001) %MON seaice_uice_max              =   3.4129571864789E-01
(PID.TID 0000.0001) %MON seaice_uice_min              =  -4.1178391130644E-01
(PID.TID 0000.0001) %MON seaice_uice_mean             =  -5.8745316691748E-03
(PID.TID 0000.0001) %MON seaice_uice_sd               =   4.2589749229161E-02
(PID.TID 0000.0001) %MON seaice_uice_del2             =   7.6617833408752E-04
(PID.TID 0000.0001) %MON seaice_vice_max              =   3.4990513861302E-01
(PID.TID 0000.0001) %MON seaice_vice_min              =  -4.0611934706900E-01
(PID.TID 0000.0001) %MON seaice_vice_mean             =  -8.4172151440930E-03
(PID.TID 0000.0001) %MON seaice_vice_sd               =   4.5163755902337E-02
(PID.TID 0000.0001) %MON seaice_vice_del2             =   8.1226919352171E-04
(PID.TID 0000.0001) %MON seaice_area_max              =   9.7739572947978E-01
(PID.TID 0000.0001) %MON seaice_area_min              =   0.0000000000000E+00
(PID.TID 0000.0001) %MON seaice_area_mean             =   6.0654214347067E-02
(PID.TID 0000.0001) %MON seaice_area_sd               =   2.1418839911007E-01
(PID.TID 0000.0001) %MON seaice_area_del2             =   1.4276779904173E-03
(PID.TID 0000.0001) %MON seaice_heff_max              =   8.2080786227292E+00
(PID.TID 0000.0001) %MON seaice_heff_min              =   0.0000000000000E+00
(PID.TID 0000.0001) %MON seaice_heff_mean             =   1.9063726581012E-01
(PID.TID 0000.0001) %MON seaice_heff_sd               =   9.3428924569862E-01
(PID.TID 0000.0001) %MON seaice_heff_del2             =   6.0884678323885E-03
(PID.TID 0000.0001) %MON seaice_hsnow_max             =   1.9690928877335E+00
(PID.TID 0000.0001) %MON seaice_hsnow_min             =   0.0000000000000E+00
(PID.TID 0000.0001) %MON seaice_hsnow_mean            =   2.1158068215045E-02
(PID.TID 0000.0001) %MON seaice_hsnow_sd              =   1.1440868475921E-01
(PID.TID 0000.0001) %MON seaice_hsnow_del2            =   1.4085464252983E-03
(PID.TID 0000.0001) // =======================================================
(PID.TID 0000.0001) // End MONITOR SEAICE statistics
(PID.TID 0000.0001) // =======================================================
 Compute Stats, Diag. #    211  SIarea    vol(   0 ): 1.456E+15  Parms: SM      M1      
 Compute Stats, Diag. #    214  SIheff    vol(   0 ): 1.456E+15  Parms: SM      M1      
 Compute Stats, Diag. #    216  SIhsnow   vol(   0 ): 1.456E+15  Parms: SM      M1      
 Compute Stats, Diag. #     83  sIceLoad  vol(   0 ): 1.456E+15  Parms: SM      U1      
 Compute Stats, Diag. #    220  SIuice    vol(   0 ): 1.383E+15  Parms: UU      M1      
 Compute Stats, Diag. #    221  SIvice    vol(   0 ): 1.391E+15  Parms: VV      M1      
 Compute Stats, Diag. #    222  SItaux    vol(   0 ): 1.383E+15  Parms: UU      U1      
 Compute Stats, Diag. #    223  SItauy    vol(   0 ): 1.391E+15  Parms: VV      U1      
 Compute Stats, Diag. #    282  SIareaN   vol(   0 ): 7.278E+15  Parms: SM      MX      
 Compute Stats, Diag. #    281  SIheffN   vol(   0 ): 7.278E+15  Parms: SM      MX      
 Compute Stats, Diag. #    283  SIhsnowN  vol(   0 ): 7.278E+15  Parms: SM      MX      
 Compute Stats, Diag. #    287  SIqSnow   vol(   0 ): 7.278E+15  Parms: SM      MX      
 Compute Stats, Diag. #    286  SIqIce    vol(   0 ): 2.911E+16  Parms: SM      MX      
 Compute Stats, Diag. #    288  SImeltPd  vol(   0 ): 7.278E+15  Parms: SM      MX      
 Compute Stats, Diag. #    285  SItIces   vol(   0 ): 7.278E+15  Parms: SM      MX      
 Compute Stats, Diag. #    289  SIiceAge  vol(   0 ): 7.278E+15  Parms: SM      MX      
 Compute Stats, Diag. #    290  SI_dArea  vol(   0 ): 7.278E+15  Parms: SM      MX      
 Compute Stats, Diag. #    291  SI_dHeff  vol(   0 ): 7.278E+15  Parms: SM      MX      
 Compute Stats, Diag. #    292  SI_dHsnw  vol(   0 ): 7.278E+15  Parms: SM      MX      
 Compute Stats, Diag. #    295  SI_dQSnw  vol(   0 ): 7.278E+15  Parms: SM      MX      
 Compute Stats, Diag. #    294  SI_dQIce  vol(   0 ): 2.911E+16  Parms: SM      MX      
 SEAICE_LSR: Residual Initial ipass,Uice,Vice=    1  2.99021907E-03  1.40816450E-03
 SEAICE_LSR (ipass=   1) iters,dU,Resid=     4  3.08409190E-05  6.66109319E-05
 SEAICE_LSR (ipass=   1) iters,dV,Resid=     4  5.78375734E-06  1.68803860E-05
 SEAICE_LSR: Residual Initial ipass,Uice,Vice=    2  1.86620125E-03  1.02841424E-03
 SEAICE_LSR (ipass=   2) iters,dU,Resid=     4  1.57110248E-05  3.97725181E-05
 SEAICE_LSR (ipass=   2) iters,dV,Resid=     4  4.06070037E-06  1.14405246E-05
 cg2d: Sum(rhs),rhsMax =  -1.29096835477456E+02  3.09413446045608E+01
(PID.TID 0000.0001)      cg2d_init_res =   2.27639813090585E-01
(PID.TID 0000.0001)      cg2d_iters(min,last) =      -1      10
(PID.TID 0000.0001)      cg2d_last_res =   6.23856435326800E-08
(PID.TID 0000.0001) // =======================================================
(PID.TID 0000.0001) // Begin MONITOR dynamic field statistics
(PID.TID 0000.0001) // =======================================================
(PID.TID 0000.0001) %MON time_tsnumber                =                    89
(PID.TID 0000.0001) %MON time_secondsf                =   8.0100000000000E+04
(PID.TID 0000.0001) %MON dynstat_eta_max              =   1.3271420886418E+00
(PID.TID 0000.0001) %MON dynstat_eta_min              =  -5.8132291956081E-01
(PID.TID 0000.0001) %MON dynstat_eta_mean             =   4.6414743266076E-02
(PID.TID 0000.0001) %MON dynstat_eta_sd               =   6.8810840618878E-02
(PID.TID 0000.0001) %MON dynstat_eta_del2             =   1.0221167829631E-03
(PID.TID 0000.0001) %MON dynstat_uvel_max             =   3.1025040147828E-01
(PID.TID 0000.0001) %MON dynstat_uvel_min             =  -5.5875970540659E-01
(PID.TID 0000.0001) %MON dynstat_uvel_mean            =  -1.5329304124326E-04
(PID.TID 0000.0001) %MON dynstat_uvel_sd              =   5.5469346722753E-03
(PID.TID 0000.0001) %MON dynstat_uvel_del2            =   7.1380746898045E-05
(PID.TID 0000.0001) %MON dynstat_vvel_max             =   3.4812656222506E-01
(PID.TID 0000.0001) %MON dynstat_vvel_min             =  -3.6148689252499E-01
(PID.TID 0000.0001) %MON dynstat_vvel_mean            =   4.1824368229955E-04
(PID.TID 0000.0001) %MON dynstat_vvel_sd              =   5.9451641525161E-03
(PID.TID 0000.0001) %MON dynstat_vvel_del2            =   7.4596981097012E-05
(PID.TID 0000.0001) %MON dynstat_wvel_max             =   1.3527307236087E-04
(PID.TID 0000.0001) %MON dynstat_wvel_min             =  -1.0001388243074E-04
(PID.TID 0000.0001) %MON dynstat_wvel_mean            =  -9.4461042385552E-08
(PID.TID 0000.0001) %MON dynstat_wvel_sd              =   6.0316203462951E-06
(PID.TID 0000.0001) %MON dynstat_wvel_del2            =   7.2044571755195E-08
(PID.TID 0000.0001) %MON dynstat_theta_max            =   2.2115754922425E+01
(PID.TID 0000.0001) %MON dynstat_theta_min            =   1.6083432981427E+01
(PID.TID 0000.0001) %MON dynstat_theta_mean           =   1.9997959311196E+01
(PID.TID 0000.0001) %MON dynstat_theta_sd             =   2.8125788825774E-02
(PID.TID 0000.0001) %MON dynstat_theta_del2           =   3.8821414991023E-04
(PID.TID 0000.0001) %MON dynstat_salt_max             =   3.5078267182645E+01
(PID.TID 0000.0001) %MON dynstat_salt_min             =   2.8387681775187E+01
(PID.TID 0000.0001) %MON dynstat_salt_mean            =   3.4999553122760E+01
(PID.TID 0000.0001) %MON dynstat_salt_sd              =   3.2589457178723E-02
(PID.TID 0000.0001) %MON dynstat_salt_del2            =   8.5570474475803E-04
(PID.TID 0000.0001) %MON dynstat_sst_max              =   2.2115754922425E+01
(PID.TID 0000.0001) %MON dynstat_sst_min              =   1.6083432981427E+01
(PID.TID 0000.0001) %MON dynstat_sst_mean             =   2.0075436363962E+01
(PID.TID 0000.0001) %MON dynstat_sst_sd               =   2.0475325381308E-01
(PID.TID 0000.0001) %MON dynstat_sst_del2             =   4.5590241640799E-03
(PID.TID 0000.0001) %MON dynstat_sss_max              =   3.5078267182645E+01
(PID.TID 0000.0001) %MON dynstat_sss_min              =   2.8387681775187E+01
(PID.TID 0000.0001) %MON dynstat_sss_mean             =   3.4977389464603E+01
(PID.TID 0000.0001) %MON dynstat_sss_sd               =   2.7826509181861E-01
(PID.TID 0000.0001) %MON dynstat_sss_del2             =   1.0746922824278E-02
(PID.TID 0000.0001) %MON forcing_qnet_max             =   3.2875875675596E+03
(PID.TID 0000.0001) %MON forcing_qnet_min             =  -2.8956245117188E+03
(PID.TID 0000.0001) %MON forcing_qnet_mean            =  -2.7239720633712E+01
(PID.TID 0000.0001) %MON forcing_qnet_sd              =   4.4348940595932E+02
(PID.TID 0000.0001) %MON forcing_qnet_del2            =   5.3242798452216E+00
(PID.TID 0000.0001) %MON forcing_qsw_max              =   0.0000000000000E+00
(PID.TID 0000.0001) %MON forcing_qsw_min              =  -1.0767142164859E+02
(PID.TID 0000.0001) %MON forcing_qsw_mean             =  -2.0722935152798E+01
(PID.TID 0000.0001) %MON forcing_qsw_sd               =   2.9485221542752E+01
(PID.TID 0000.0001) %MON forcing_qsw_del2             =   1.3920558940936E-01
(PID.TID 0000.0001) %MON forcing_empmr_max            =   4.4604446738958E-03
(PID.TID 0000.0001) %MON forcing_empmr_min            =  -6.4095295965672E-02
(PID.TID 0000.0001) %MON forcing_empmr_mean           =  -3.3885211087551E-04
(PID.TID 0000.0001) %MON forcing_empmr_sd             =   2.8672477927691E-03
(PID.TID 0000.0001) %MON forcing_empmr_del2           =   1.1192241044849E-04
(PID.TID 0000.0001) %MON forcing_fu_max               =   4.9516606992107E-01
(PID.TID 0000.0001) %MON forcing_fu_min               =  -5.9385938536316E-01
(PID.TID 0000.0001) %MON forcing_fu_mean              =  -1.5883433171077E-03
(PID.TID 0000.0001) %MON forcing_fu_sd                =   7.8818851515312E-02
(PID.TID 0000.0001) %MON forcing_fu_del2              =   6.7353231441168E-04
(PID.TID 0000.0001) %MON forcing_fv_max               =   3.3034426417133E-01
(PID.TID 0000.0001) %MON forcing_fv_min               =  -3.1104016716319E-01
(PID.TID 0000.0001) %MON forcing_fv_mean              =  -6.6410908086551E-03
(PID.TID 0000.0001) %MON forcing_fv_sd                =   7.1058869285381E-02
(PID.TID 0000.0001) %MON forcing_fv_del2              =   5.6115611765718E-04
(PID.TID 0000.0001) %MON trAdv_CFL_u_max              =   1.6237410349198E-03
(PID.TID 0000.0001) %MON trAdv_CFL_v_max              =   1.4084775175280E-03
(PID.TID 0000.0001) %MON trAdv_CFL_w_max              =   1.2158488265338E-03
(PID.TID 0000.0001) %MON advcfl_uvel_max              =   1.6119323708109E-03
(PID.TID 0000.0001) %MON advcfl_vvel_max              =   1.4605164837168E-03
(PID.TID 0000.0001) %MON advcfl_wvel_max              =   2.2294015988060E-03
(PID.TID 0000.0001) %MON advcfl_W_hf_max              =   1.2517658012030E-03
(PID.TID 0000.0001) %MON pe_b_mean                    =   9.1776527068309E-06
(PID.TID 0000.0001) %MON ke_max                       =   1.2206619458875E-01
(PID.TID 0000.0001) %MON ke_mean                      =   3.0626664171801E-05
(PID.TID 0000.0001) %MON ke_vol                       =   1.3398192278516E+18
(PID.TID 0000.0001) %MON vort_r_min                   =  -2.4299020026586E-06
(PID.TID 0000.0001) %MON vort_r_max                   =   2.3872587284465E-06
(PID.TID 0000.0001) %MON vort_a_mean                  =  -2.0549865324846E-05
(PID.TID 0000.0001) %MON vort_a_sd                    =   7.5259401496600E-05
(PID.TID 0000.0001) %MON vort_p_mean                  =  -2.4783209636654E-05
(PID.TID 0000.0001) %MON vort_p_sd                    =   1.2810504868799E-04
(PID.TID 0000.0001) %MON surfExpan_theta_mean         =  -2.8976561948589E-07
(PID.TID 0000.0001) %MON surfExpan_salt_mean          =   7.5308743222276E-07
(PID.TID 0000.0001) // =======================================================
(PID.TID 0000.0001) // End MONITOR dynamic field statistics
(PID.TID 0000.0001) // =======================================================
(PID.TID 0000.0001) // =======================================================
(PID.TID 0000.0001) // Begin MONITOR SEAICE statistics
(PID.TID 0000.0001) // =======================================================
(PID.TID 0000.0001) %MON seaice_tsnumber              =                    89
(PID.TID 0000.0001) %MON seaice_time_sec              =   8.0100000000000E+04
(PID.TID 0000.0001) %MON seaice_uice_max              =   3.2827047193089E-01
(PID.TID 0000.0001) %MON seaice_uice_min              =  -4.0839175816374E-01
(PID.TID 0000.0001) %MON seaice_uice_mean             =  -6.0305923949024E-03
(PID.TID 0000.0001) %MON seaice_uice_sd               =   4.2400206840529E-02
(PID.TID 0000.0001) %MON seaice_uice_del2             =   7.6912007283171E-04
(PID.TID 0000.0001) %MON seaice_vice_max              =   3.4754473860289E-01
(PID.TID 0000.0001) %MON seaice_vice_min              =  -3.8242996696354E-01
(PID.TID 0000.0001) %MON seaice_vice_mean             =  -8.1884586851449E-03
(PID.TID 0000.0001) %MON seaice_vice_sd               =   4.5597559442527E-02
(PID.TID 0000.0001) %MON seaice_vice_del2             =   8.0711758161657E-04
(PID.TID 0000.0001) %MON seaice_area_max              =   9.7700909603310E-01
(PID.TID 0000.0001) %MON seaice_area_min              =   0.0000000000000E+00
(PID.TID 0000.0001) %MON seaice_area_mean             =   6.0565980322171E-02
(PID.TID 0000.0001) %MON seaice_area_sd               =   2.1395100998767E-01
(PID.TID 0000.0001) %MON seaice_area_del2             =   1.4239918010465E-03
(PID.TID 0000.0001) %MON seaice_heff_max              =   8.2054680078097E+00
(PID.TID 0000.0001) %MON seaice_heff_min              =   0.0000000000000E+00
(PID.TID 0000.0001) %MON seaice_heff_mean             =   1.9047018875129E-01
(PID.TID 0000.0001) %MON seaice_heff_sd               =   9.3380173920373E-01
(PID.TID 0000.0001) %MON seaice_heff_del2             =   6.0868802916075E-03
(PID.TID 0000.0001) %MON seaice_hsnow_max             =   1.9683695676783E+00
(PID.TID 0000.0001) %MON seaice_hsnow_min             =   0.0000000000000E+00
(PID.TID 0000.0001) %MON seaice_hsnow_mean            =   2.1139397671823E-02
(PID.TID 0000.0001) %MON seaice_hsnow_sd              =   1.1434999613807E-01
(PID.TID 0000.0001) %MON seaice_hsnow_del2            =   1.4079657699569E-03
(PID.TID 0000.0001) // =======================================================
(PID.TID 0000.0001) // End MONITOR SEAICE statistics
(PID.TID 0000.0001) // =======================================================
 Computing Diagnostic #    211  SIarea       Counter:       1   Parms: SM      M1      
 Computing Diagnostic #    214  SIheff       Counter:       1   Parms: SM      M1      
 Computing Diagnostic #    216  SIhsnow      Counter:       1   Parms: SM      M1      
 Computing Diagnostic #     83  sIceLoad     Counter:       1   Parms: SM      U1      
 Computing Diagnostic #    220  SIuice       Counter:       1   Parms: UU      M1      
           Vector  Mate for  SIuice       Diagnostic #    221  SIvice   exists 
 Computing Diagnostic #    221  SIvice       Counter:       1   Parms: VV      M1      
           Vector  Mate for  SIvice       Diagnostic #    220  SIuice   exists 
 Computing Diagnostic #    222  SItaux       Counter:       1   Parms: UU      U1      
           Vector  Mate for  SItaux       Diagnostic #    223  SItauy   exists 
 Computing Diagnostic #    223  SItauy       Counter:       1   Parms: VV      U1      
           Vector  Mate for  SItauy       Diagnostic #    222  SItaux   exists 
 Computing Diagnostic #    284  CPLoWGHT     Counter:       1   Parms: SM      M1      
 Computing Diagnostic #    282  SIareaN      Counter:       1   Parms: SM      MX      
 Computing Diagnostic #    281  SIheffN      Counter:       1   Parms: SM      MX      
 Computing Diagnostic #    283  SIhsnowN     Counter:       1   Parms: SM      MX      
 Computing Diagnostic #    287  SIqSnow      Counter:       1   Parms: SM      MX      
 Computing Diagnostic #    288  SImeltPd     Counter:       1   Parms: SM      MX      
 Computing Diagnostic #    285  SItIces      Counter:       1   Parms: SM      MX      
 Computing Diagnostic #    289  SIiceAge     Counter:       1   Parms: SM      MX      
 Computing Diagnostic #    290  SI_dArea     Counter:       1   Parms: SM      MX      
 Computing Diagnostic #    291  SI_dHeff     Counter:       1   Parms: SM      MX      
 Computing Diagnostic #    292  SI_dHsnw     Counter:       1   Parms: SM      MX      
 Computing Diagnostic #    295  SI_dQSnw     Counter:       1   Parms: SM      MX      
 Computing Diagnostic #    286  SIqIce       Counter:       1   Parms: SM      MX      
 Computing Diagnostic #    294  SI_dQIce     Counter:       1   Parms: SM      MX      
 SEAICE_LSR: Residual Initial ipass,Uice,Vice=    1  2.88828503E-03  1.39229126E-03
 SEAICE_LSR (ipass=   1) iters,dU,Resid=     4  3.44589383E-05  7.16831806E-05
 SEAICE_LSR (ipass=   1) iters,dV,Resid=     4  6.67599219E-06  1.95781983E-05
 SEAICE_LSR: Residual Initial ipass,Uice,Vice=    2  1.82081121E-03  8.54557396E-04
 SEAICE_LSR (ipass=   2) iters,dU,Resid=     4  1.77064567E-05  4.65349433E-05
 SEAICE_LSR (ipass=   2) iters,dV,Resid=     4  4.07765142E-06  1.15963835E-05
 cg2d: Sum(rhs),rhsMax =  -1.29507782623364E+02  3.10366033860876E+01
(PID.TID 0000.0001)      cg2d_init_res =   2.22653536477555E-01
(PID.TID 0000.0001)      cg2d_iters(min,last) =      -1      10
(PID.TID 0000.0001)      cg2d_last_res =   7.77173348724246E-08
(PID.TID 0000.0001) // =======================================================
(PID.TID 0000.0001) // Begin MONITOR dynamic field statistics
(PID.TID 0000.0001) // =======================================================
(PID.TID 0000.0001) %MON time_tsnumber                =                    90
(PID.TID 0000.0001) %MON time_secondsf                =   8.1000000000000E+04
(PID.TID 0000.0001) %MON dynstat_eta_max              =   1.3311225604106E+00
(PID.TID 0000.0001) %MON dynstat_eta_min              =  -6.5326249756323E-01
(PID.TID 0000.0001) %MON dynstat_eta_mean             =   4.6705844310721E-02
(PID.TID 0000.0001) %MON dynstat_eta_sd               =   6.8465791774389E-02
(PID.TID 0000.0001) %MON dynstat_eta_del2             =   1.0206355443919E-03
(PID.TID 0000.0001) %MON dynstat_uvel_max             =   2.9363274948473E-01
(PID.TID 0000.0001) %MON dynstat_uvel_min             =  -5.4924072890213E-01
(PID.TID 0000.0001) %MON dynstat_uvel_mean            =  -1.5839451002226E-04
(PID.TID 0000.0001) %MON dynstat_uvel_sd              =   5.5365740754358E-03
(PID.TID 0000.0001) %MON dynstat_uvel_del2            =   7.1504205282367E-05
(PID.TID 0000.0001) %MON dynstat_vvel_max             =   3.3733178154777E-01
(PID.TID 0000.0001) %MON dynstat_vvel_min             =  -3.2788512451755E-01
(PID.TID 0000.0001) %MON dynstat_vvel_mean            =   4.0900918822583E-04
(PID.TID 0000.0001) %MON dynstat_vvel_sd              =   5.9564989128654E-03
(PID.TID 0000.0001) %MON dynstat_vvel_del2            =   7.3825775980540E-05
(PID.TID 0000.0001) %MON dynstat_wvel_max             =   1.3280588818187E-04
(PID.TID 0000.0001) %MON dynstat_wvel_min             =  -9.6167346605238E-05
(PID.TID 0000.0001) %MON dynstat_wvel_mean            =  -9.2663022039774E-08
(PID.TID 0000.0001) %MON dynstat_wvel_sd              =   5.9967112422342E-06
(PID.TID 0000.0001) %MON dynstat_wvel_del2            =   7.1613408434857E-08
(PID.TID 0000.0001) %MON dynstat_theta_max            =   2.2128976449651E+01
(PID.TID 0000.0001) %MON dynstat_theta_min            =   1.6085841888328E+01
(PID.TID 0000.0001) %MON dynstat_theta_mean           =   1.9997960921167E+01
(PID.TID 0000.0001) %MON dynstat_theta_sd             =   2.8245552757029E-02
(PID.TID 0000.0001) %MON dynstat_theta_del2           =   3.8926945909900E-04
(PID.TID 0000.0001) %MON dynstat_salt_max             =   3.5078275464316E+01
(PID.TID 0000.0001) %MON dynstat_salt_min             =   2.8363926699545E+01
(PID.TID 0000.0001) %MON dynstat_salt_mean            =   3.4999550682137E+01
(PID.TID 0000.0001) %MON dynstat_salt_sd              =   3.2712717576432E-02
(PID.TID 0000.0001) %MON dynstat_salt_del2            =   8.5856132971919E-04
(PID.TID 0000.0001) %MON dynstat_sst_max              =   2.2128976449651E+01
(PID.TID 0000.0001) %MON dynstat_sst_min              =   1.6085841888328E+01
(PID.TID 0000.0001) %MON dynstat_sst_mean             =   2.0076145477507E+01
(PID.TID 0000.0001) %MON dynstat_sst_sd               =   2.0558962774135E-01
(PID.TID 0000.0001) %MON dynstat_sst_del2             =   4.5726959817211E-03
(PID.TID 0000.0001) %MON dynstat_sss_max              =   3.5078275464316E+01
(PID.TID 0000.0001) %MON dynstat_sss_min              =   2.8363926699545E+01
(PID.TID 0000.0001) %MON dynstat_sss_mean             =   3.4977269140347E+01
(PID.TID 0000.0001) %MON dynstat_sss_sd               =   2.7931537342025E-01
(PID.TID 0000.0001) %MON dynstat_sss_del2             =   1.0782823305647E-02
(PID.TID 0000.0001) %MON forcing_qnet_max             =   3.3898752481023E+03
(PID.TID 0000.0001) %MON forcing_qnet_min             =  -2.8599099121094E+03
(PID.TID 0000.0001) %MON forcing_qnet_mean            =  -2.6624391614209E+01
(PID.TID 0000.0001) %MON forcing_qnet_sd              =   4.4267160774840E+02
(PID.TID 0000.0001) %MON forcing_qnet_del2            =   5.2772513558722E+00
(PID.TID 0000.0001) %MON forcing_qsw_max              =   0.0000000000000E+00
(PID.TID 0000.0001) %MON forcing_qsw_min              =  -1.0792002700892E+02
(PID.TID 0000.0001) %MON forcing_qsw_mean             =  -2.0947034480792E+01
(PID.TID 0000.0001) %MON forcing_qsw_sd               =   2.9678983020663E+01
(PID.TID 0000.0001) %MON forcing_qsw_del2             =   1.3851535717432E-01
(PID.TID 0000.0001) %MON forcing_empmr_max            =   4.4145882129669E-03
(PID.TID 0000.0001) %MON forcing_empmr_min            =  -6.3434936106205E-02
(PID.TID 0000.0001) %MON forcing_empmr_mean           =  -3.3476620134137E-04
(PID.TID 0000.0001) %MON forcing_empmr_sd             =   2.8392808118209E-03
(PID.TID 0000.0001) %MON forcing_empmr_del2           =   1.1078017727209E-04
(PID.TID 0000.0001) %MON forcing_fu_max               =   4.9011116250321E-01
(PID.TID 0000.0001) %MON forcing_fu_min               =  -5.9270794425802E-01
(PID.TID 0000.0001) %MON forcing_fu_mean              =  -1.7402268719887E-03
(PID.TID 0000.0001) %MON forcing_fu_sd                =   7.8594508404538E-02
(PID.TID 0000.0001) %MON forcing_fu_del2              =   6.7175904862148E-04
(PID.TID 0000.0001) %MON forcing_fv_max               =   3.2525808297714E-01
(PID.TID 0000.0001) %MON forcing_fv_min               =  -3.1308505434820E-01
(PID.TID 0000.0001) %MON forcing_fv_mean              =  -6.6140032631318E-03
(PID.TID 0000.0001) %MON forcing_fv_sd                =   7.0998894767680E-02
(PID.TID 0000.0001) %MON forcing_fv_del2              =   5.5869694850280E-04
(PID.TID 0000.0001) %MON trAdv_CFL_u_max              =   1.5973695554026E-03
(PID.TID 0000.0001) %MON trAdv_CFL_v_max              =   1.4003133884023E-03
(PID.TID 0000.0001) %MON trAdv_CFL_w_max              =   1.2092583634379E-03
(PID.TID 0000.0001) %MON advcfl_uvel_max              =   1.5844716462524E-03
(PID.TID 0000.0001) %MON advcfl_vvel_max              =   1.4535758679494E-03
(PID.TID 0000.0001) %MON advcfl_wvel_max              =   2.2064325602158E-03
(PID.TID 0000.0001) %MON advcfl_W_hf_max              =   1.2338708647951E-03
(PID.TID 0000.0001) %MON pe_b_mean                    =   9.1506627241475E-06
(PID.TID 0000.0001) %MON ke_max                       =   1.2261541511711E-01
(PID.TID 0000.0001) %MON ke_mean                      =   3.0633679141314E-05
(PID.TID 0000.0001) %MON ke_vol                       =   1.3398193350723E+18
(PID.TID 0000.0001) %MON vort_r_min                   =  -2.4292936236068E-06
(PID.TID 0000.0001) %MON vort_r_max                   =   2.3871152789314E-06
(PID.TID 0000.0001) %MON vort_a_mean                  =  -2.0549865324846E-05
(PID.TID 0000.0001) %MON vort_a_sd                    =   7.5259401059088E-05
(PID.TID 0000.0001) %MON vort_p_mean                  =  -2.4783207712659E-05
(PID.TID 0000.0001) %MON vort_p_sd                    =   1.2810504674717E-04
(PID.TID 0000.0001) %MON surfExpan_theta_mean         =  -2.7395233311378E-07
(PID.TID 0000.0001) %MON surfExpan_salt_mean          =   7.4309454333066E-07
(PID.TID 0000.0001) // =======================================================
(PID.TID 0000.0001) // End MONITOR dynamic field statistics
(PID.TID 0000.0001) // =======================================================
(PID.TID 0000.0001) // =======================================================
(PID.TID 0000.0001) // Begin MONITOR SEAICE statistics
(PID.TID 0000.0001) // =======================================================
(PID.TID 0000.0001) %MON seaice_tsnumber              =                    90
(PID.TID 0000.0001) %MON seaice_time_sec              =   8.1000000000000E+04
(PID.TID 0000.0001) %MON seaice_uice_max              =   3.1319697625782E-01
(PID.TID 0000.0001) %MON seaice_uice_min              =  -4.0251226967836E-01
(PID.TID 0000.0001) %MON seaice_uice_mean             =  -6.1812880803641E-03
(PID.TID 0000.0001) %MON seaice_uice_sd               =   4.2190687135396E-02
(PID.TID 0000.0001) %MON seaice_uice_del2             =   7.7216939048147E-04
(PID.TID 0000.0001) %MON seaice_vice_max              =   3.4117790279800E-01
(PID.TID 0000.0001) %MON seaice_vice_min              =  -3.5351291772285E-01
(PID.TID 0000.0001) %MON seaice_vice_mean             =  -7.9578644386071E-03
(PID.TID 0000.0001) %MON seaice_vice_sd               =   4.5955874977251E-02
(PID.TID 0000.0001) %MON seaice_vice_del2             =   8.0078215741716E-04
(PID.TID 0000.0001) %MON seaice_area_max              =   9.7662240905883E-01
(PID.TID 0000.0001) %MON seaice_area_min              =   0.0000000000000E+00
(PID.TID 0000.0001) %MON seaice_area_mean             =   6.0477842218810E-02
(PID.TID 0000.0001) %MON seaice_area_sd               =   2.1371394777874E-01
(PID.TID 0000.0001) %MON seaice_area_del2             =   1.4203213512130E-03
(PID.TID 0000.0001) %MON seaice_heff_max              =   8.2028580615580E+00
(PID.TID 0000.0001) %MON seaice_heff_min              =   0.0000000000000E+00
(PID.TID 0000.0001) %MON seaice_heff_mean             =   1.9030327791775E-01
(PID.TID 0000.0001) %MON seaice_heff_sd               =   9.3331436736142E-01
(PID.TID 0000.0001) %MON seaice_heff_del2             =   6.0852945304393E-03
(PID.TID 0000.0001) %MON seaice_hsnow_max             =   1.9676506438446E+00
(PID.TID 0000.0001) %MON seaice_hsnow_min             =   0.0000000000000E+00
(PID.TID 0000.0001) %MON seaice_hsnow_mean            =   2.1120753605691E-02
(PID.TID 0000.0001) %MON seaice_hsnow_sd              =   1.1429141494192E-01
(PID.TID 0000.0001) %MON seaice_hsnow_del2            =   1.4073854939935E-03
(PID.TID 0000.0001) // =======================================================
(PID.TID 0000.0001) // End MONITOR SEAICE statistics
(PID.TID 0000.0001) // =======================================================
 SEAICE_LSR: Residual Initial ipass,Uice,Vice=    1  2.71442811E-03  1.21258168E-03
 SEAICE_LSR (ipass=   1) iters,dU,Resid=     4  3.77274361E-05  7.77774162E-05
 SEAICE_LSR (ipass=   1) iters,dV,Resid=     4  6.61007015E-06  1.95647628E-05
 SEAICE_LSR: Residual Initial ipass,Uice,Vice=    2  1.58787080E-03  8.17475771E-04
 SEAICE_LSR (ipass=   2) iters,dU,Resid=     4  1.90759719E-05  5.21320786E-05
 SEAICE_LSR (ipass=   2) iters,dV,Resid=     4  5.44663842E-06  1.11534907E-05
 cg2d: Sum(rhs),rhsMax =  -1.30239199114497E+02  3.10538829260291E+01
(PID.TID 0000.0001)      cg2d_init_res =   2.17826456764344E-01
(PID.TID 0000.0001)      cg2d_iters(min,last) =      -1      10
(PID.TID 0000.0001)      cg2d_last_res =   8.62025928363723E-08
(PID.TID 0000.0001) // =======================================================
(PID.TID 0000.0001) // Begin MONITOR dynamic field statistics
(PID.TID 0000.0001) // =======================================================
(PID.TID 0000.0001) %MON time_tsnumber                =                    91
(PID.TID 0000.0001) %MON time_secondsf                =   8.1900000000000E+04
(PID.TID 0000.0001) %MON dynstat_eta_max              =   1.3317614105781E+00
(PID.TID 0000.0001) %MON dynstat_eta_min              =  -7.0653994569142E-01
(PID.TID 0000.0001) %MON dynstat_eta_mean             =   4.6995773447134E-02
(PID.TID 0000.0001) %MON dynstat_eta_sd               =   6.8174766483073E-02
(PID.TID 0000.0001) %MON dynstat_eta_del2             =   1.0246125919455E-03
(PID.TID 0000.0001) %MON dynstat_uvel_max             =   2.7595209886252E-01
(PID.TID 0000.0001) %MON dynstat_uvel_min             =  -5.3738643204196E-01
(PID.TID 0000.0001) %MON dynstat_uvel_mean            =  -1.6265500037094E-04
(PID.TID 0000.0001) %MON dynstat_uvel_sd              =   5.5268425798816E-03
(PID.TID 0000.0001) %MON dynstat_uvel_del2            =   7.1576413102083E-05
(PID.TID 0000.0001) %MON dynstat_vvel_max             =   3.2321035389407E-01
(PID.TID 0000.0001) %MON dynstat_vvel_min             =  -3.0070371122209E-01
(PID.TID 0000.0001) %MON dynstat_vvel_mean            =   4.0235492081585E-04
(PID.TID 0000.0001) %MON dynstat_vvel_sd              =   5.9605800320218E-03
(PID.TID 0000.0001) %MON dynstat_vvel_del2            =   7.3085454072407E-05
(PID.TID 0000.0001) %MON dynstat_wvel_max             =   1.3013917727845E-04
(PID.TID 0000.0001) %MON dynstat_wvel_min             =  -9.2634633198990E-05
(PID.TID 0000.0001) %MON dynstat_wvel_mean            =  -9.2711819359892E-08
(PID.TID 0000.0001) %MON dynstat_wvel_sd              =   5.9650990283315E-06
(PID.TID 0000.0001) %MON dynstat_wvel_del2            =   7.1203388771567E-08
(PID.TID 0000.0001) %MON dynstat_theta_max            =   2.2142020228624E+01
(PID.TID 0000.0001) %MON dynstat_theta_min            =   1.6088215848394E+01
(PID.TID 0000.0001) %MON dynstat_theta_mean           =   1.9997962483657E+01
(PID.TID 0000.0001) %MON dynstat_theta_sd             =   2.8365017304205E-02
(PID.TID 0000.0001) %MON dynstat_theta_del2           =   3.9031305876351E-04
(PID.TID 0000.0001) %MON dynstat_salt_max             =   3.5078283935049E+01
(PID.TID 0000.0001) %MON dynstat_salt_min             =   2.8340652864878E+01
(PID.TID 0000.0001) %MON dynstat_salt_mean            =   3.4999548255454E+01
(PID.TID 0000.0001) %MON dynstat_salt_sd              =   3.2833639593795E-02
(PID.TID 0000.0001) %MON dynstat_salt_del2            =   8.6135060374482E-04
(PID.TID 0000.0001) %MON dynstat_sst_max              =   2.2142020228624E+01
(PID.TID 0000.0001) %MON dynstat_sst_min              =   1.6088215848394E+01
(PID.TID 0000.0001) %MON dynstat_sst_mean             =   2.0076846022918E+01
(PID.TID 0000.0001) %MON dynstat_sst_sd               =   2.0642681290865E-01
(PID.TID 0000.0001) %MON dynstat_sst_del2             =   4.5862635316897E-03
(PID.TID 0000.0001) %MON dynstat_sss_max              =   3.5078283935049E+01
(PID.TID 0000.0001) %MON dynstat_sss_min              =   2.8340652864878E+01
(PID.TID 0000.0001) %MON dynstat_sss_mean             =   3.4977148405484E+01
(PID.TID 0000.0001) %MON dynstat_sss_sd               =   2.8034467211117E-01
(PID.TID 0000.0001) %MON dynstat_sss_del2             =   1.0817880431927E-02
(PID.TID 0000.0001) %MON forcing_qnet_max             =   3.4962547338870E+03
(PID.TID 0000.0001) %MON forcing_qnet_min             =  -2.8246364746094E+03
(PID.TID 0000.0001) %MON forcing_qnet_mean            =  -2.5832724894726E+01
(PID.TID 0000.0001) %MON forcing_qnet_sd              =   4.4235790598564E+02
(PID.TID 0000.0001) %MON forcing_qnet_del2            =   5.2592688046492E+00
(PID.TID 0000.0001) %MON forcing_qsw_max              =   0.0000000000000E+00
(PID.TID 0000.0001) %MON forcing_qsw_min              =  -1.0773412350026E+02
(PID.TID 0000.0001) %MON forcing_qsw_mean             =  -2.1126699205131E+01
(PID.TID 0000.0001) %MON forcing_qsw_sd               =   2.9821050690237E+01
(PID.TID 0000.0001) %MON forcing_qsw_del2             =   1.3756123894038E-01
(PID.TID 0000.0001) %MON forcing_empmr_max            =   4.3692239560187E-03
(PID.TID 0000.0001) %MON forcing_empmr_min            =  -6.2781289219856E-02
(PID.TID 0000.0001) %MON forcing_empmr_mean           =  -3.3341850687547E-04
(PID.TID 0000.0001) %MON forcing_empmr_sd             =   2.8115206846661E-03
(PID.TID 0000.0001) %MON forcing_empmr_del2           =   1.0965180006506E-04
(PID.TID 0000.0001) %MON forcing_fu_max               =   4.8640887313347E-01
(PID.TID 0000.0001) %MON forcing_fu_min               =  -5.9148377623124E-01
(PID.TID 0000.0001) %MON forcing_fu_mean              =  -1.8991087943152E-03
(PID.TID 0000.0001) %MON forcing_fu_sd                =   7.8414614556315E-02
(PID.TID 0000.0001) %MON forcing_fu_del2              =   6.7027339625494E-04
(PID.TID 0000.0001) %MON forcing_fv_max               =   3.1969225408549E-01
(PID.TID 0000.0001) %MON forcing_fv_min               =  -3.1518789145705E-01
(PID.TID 0000.0001) %MON forcing_fv_mean              =  -6.5725171298681E-03
(PID.TID 0000.0001) %MON forcing_fv_sd                =   7.0920797675478E-02
(PID.TID 0000.0001) %MON forcing_fv_del2              =   5.5635691089773E-04
(PID.TID 0000.0001) %MON trAdv_CFL_u_max              =   1.6348083725483E-03
(PID.TID 0000.0001) %MON trAdv_CFL_v_max              =   1.3899841936503E-03
(PID.TID 0000.0001) %MON trAdv_CFL_w_max              =   1.1910658827335E-03
(PID.TID 0000.0001) %MON advcfl_uvel_max              =   1.5502738960260E-03
(PID.TID 0000.0001) %MON advcfl_vvel_max              =   1.4446978230015E-03
(PID.TID 0000.0001) %MON advcfl_wvel_max              =   2.1836970163428E-03
(PID.TID 0000.0001) %MON advcfl_W_hf_max              =   1.2146914329604E-03
(PID.TID 0000.0001) %MON pe_b_mean                    =   9.1338779785067E-06
(PID.TID 0000.0001) %MON ke_max                       =   1.2230158531656E-01
(PID.TID 0000.0001) %MON ke_mean                      =   3.0604895298726E-05
(PID.TID 0000.0001) %MON ke_vol                       =   1.3398194410001E+18
(PID.TID 0000.0001) %MON vort_r_min                   =  -2.4260612645166E-06
(PID.TID 0000.0001) %MON vort_r_max                   =   2.3833707860201E-06
(PID.TID 0000.0001) %MON vort_a_mean                  =  -2.0549865324846E-05
(PID.TID 0000.0001) %MON vort_a_sd                    =   7.5259401001675E-05
(PID.TID 0000.0001) %MON vort_p_mean                  =  -2.4783205815063E-05
(PID.TID 0000.0001) %MON vort_p_sd                    =   1.2810504368836E-04
(PID.TID 0000.0001) %MON surfExpan_theta_mean         =  -2.5693767551390E-07
(PID.TID 0000.0001) %MON surfExpan_salt_mean          =   7.3306173259162E-07
(PID.TID 0000.0001) // =======================================================
(PID.TID 0000.0001) // End MONITOR dynamic field statistics
(PID.TID 0000.0001) // =======================================================
(PID.TID 0000.0001) // =======================================================
(PID.TID 0000.0001) // Begin MONITOR SEAICE statistics
(PID.TID 0000.0001) // =======================================================
(PID.TID 0000.0001) %MON seaice_tsnumber              =                    91
(PID.TID 0000.0001) %MON seaice_time_sec              =   8.1900000000000E+04
(PID.TID 0000.0001) %MON seaice_uice_max              =   2.9655596061028E-01
(PID.TID 0000.0001) %MON seaice_uice_min              =  -3.9430015418215E-01
(PID.TID 0000.0001) %MON seaice_uice_mean             =  -6.3269223095603E-03
(PID.TID 0000.0001) %MON seaice_uice_sd               =   4.1992701019171E-02
(PID.TID 0000.0001) %MON seaice_uice_del2             =   7.7522619806188E-04
(PID.TID 0000.0001) %MON seaice_vice_max              =   3.3103634601664E-01
(PID.TID 0000.0001) %MON seaice_vice_min              =  -3.2001047419488E-01
(PID.TID 0000.0001) %MON seaice_vice_mean             =  -7.7361508283490E-03
(PID.TID 0000.0001) %MON seaice_vice_sd               =   4.6241727506279E-02
(PID.TID 0000.0001) %MON seaice_vice_del2             =   7.9366006211139E-04
(PID.TID 0000.0001) %MON seaice_area_max              =   9.7623549459251E-01
(PID.TID 0000.0001) %MON seaice_area_min              =   0.0000000000000E+00
(PID.TID 0000.0001) %MON seaice_area_mean             =   6.0389806374236E-02
(PID.TID 0000.0001) %MON seaice_area_sd               =   2.1347719429773E-01
(PID.TID 0000.0001) %MON seaice_area_del2             =   1.4166656501383E-03
(PID.TID 0000.0001) %MON seaice_heff_max              =   8.2002477313887E+00
(PID.TID 0000.0001) %MON seaice_heff_min              =   0.0000000000000E+00
(PID.TID 0000.0001) %MON seaice_heff_mean             =   1.9013654052596E-01
(PID.TID 0000.0001) %MON seaice_heff_sd               =   9.3282709575350E-01
(PID.TID 0000.0001) %MON seaice_heff_del2             =   6.0837103844171E-03
(PID.TID 0000.0001) %MON seaice_hsnow_max             =   1.9669176737003E+00
(PID.TID 0000.0001) %MON seaice_hsnow_min             =   0.0000000000000E+00
(PID.TID 0000.0001) %MON seaice_hsnow_mean            =   2.1102264967752E-02
(PID.TID 0000.0001) %MON seaice_hsnow_sd              =   1.1423304049591E-01
(PID.TID 0000.0001) %MON seaice_hsnow_del2            =   1.4067960757556E-03
(PID.TID 0000.0001) // =======================================================
(PID.TID 0000.0001) // End MONITOR SEAICE statistics
(PID.TID 0000.0001) // =======================================================
 SEAICE_LSR: Residual Initial ipass,Uice,Vice=    1  2.49214064E-03  1.27955957E-03
 SEAICE_LSR (ipass=   1) iters,dU,Resid=     4  3.96611299E-05  8.38199857E-05
 SEAICE_LSR (ipass=   1) iters,dV,Resid=     4  9.42687559E-06  2.05134243E-05
 SEAICE_LSR: Residual Initial ipass,Uice,Vice=    2  1.43494689E-03  8.85691831E-04
 SEAICE_LSR (ipass=   2) iters,dU,Resid=     4  1.97971599E-05  5.69379823E-05
 SEAICE_LSR (ipass=   2) iters,dV,Resid=     4  7.37151780E-06  1.15221691E-05
 cg2d: Sum(rhs),rhsMax =  -1.31297173126579E+02  3.09930663474222E+01
(PID.TID 0000.0001)      cg2d_init_res =   2.13255607425315E-01
(PID.TID 0000.0001)      cg2d_iters(min,last) =      -1      10
(PID.TID 0000.0001)      cg2d_last_res =   9.05373102897158E-08
(PID.TID 0000.0001) // =======================================================
(PID.TID 0000.0001) // Begin MONITOR dynamic field statistics
(PID.TID 0000.0001) // =======================================================
(PID.TID 0000.0001) %MON time_tsnumber                =                    92
(PID.TID 0000.0001) %MON time_secondsf                =   8.2800000000000E+04
(PID.TID 0000.0001) %MON dynstat_eta_max              =   1.3290551901535E+00
(PID.TID 0000.0001) %MON dynstat_eta_min              =  -7.4050459403789E-01
(PID.TID 0000.0001) %MON dynstat_eta_mean             =   4.7284749745950E-02
(PID.TID 0000.0001) %MON dynstat_eta_sd               =   6.7919210778806E-02
(PID.TID 0000.0001) %MON dynstat_eta_del2             =   1.0318794655366E-03
(PID.TID 0000.0001) %MON dynstat_uvel_max             =   2.5771144572657E-01
(PID.TID 0000.0001) %MON dynstat_uvel_min             =  -5.2325254879617E-01
(PID.TID 0000.0001) %MON dynstat_uvel_mean            =  -1.6610326339632E-04
(PID.TID 0000.0001) %MON dynstat_uvel_sd              =   5.5178481719620E-03
(PID.TID 0000.0001) %MON dynstat_uvel_del2            =   7.1595117527904E-05
(PID.TID 0000.0001) %MON dynstat_vvel_max             =   3.1999091698802E-01
(PID.TID 0000.0001) %MON dynstat_vvel_min             =  -2.9843341675356E-01
(PID.TID 0000.0001) %MON dynstat_vvel_mean            =   3.9826932330857E-04
(PID.TID 0000.0001) %MON dynstat_vvel_sd              =   5.9580127400073E-03
(PID.TID 0000.0001) %MON dynstat_vvel_del2            =   7.2428987438626E-05
(PID.TID 0000.0001) %MON dynstat_wvel_max             =   1.2742397434591E-04
(PID.TID 0000.0001) %MON dynstat_wvel_min             =  -9.0349247577555E-05
(PID.TID 0000.0001) %MON dynstat_wvel_mean            =  -9.3304587631316E-08
(PID.TID 0000.0001) %MON dynstat_wvel_sd              =   5.9374509518625E-06
(PID.TID 0000.0001) %MON dynstat_wvel_del2            =   7.0812128922585E-08
(PID.TID 0000.0001) %MON dynstat_theta_max            =   2.2154892653869E+01
(PID.TID 0000.0001) %MON dynstat_theta_min            =   1.6090467875369E+01
(PID.TID 0000.0001) %MON dynstat_theta_mean           =   1.9997963973022E+01
(PID.TID 0000.0001) %MON dynstat_theta_sd             =   2.8484335663396E-02
(PID.TID 0000.0001) %MON dynstat_theta_del2           =   3.9137560202118E-04
(PID.TID 0000.0001) %MON dynstat_salt_max             =   3.5078292120087E+01
(PID.TID 0000.0001) %MON dynstat_salt_min             =   2.8317849625789E+01
(PID.TID 0000.0001) %MON dynstat_salt_mean            =   3.4999545840887E+01
(PID.TID 0000.0001) %MON dynstat_salt_sd              =   3.2952296091768E-02
(PID.TID 0000.0001) %MON dynstat_salt_del2            =   8.6407637665461E-04
(PID.TID 0000.0001) %MON dynstat_sst_max              =   2.2154892653869E+01
(PID.TID 0000.0001) %MON dynstat_sst_min              =   1.6090467875369E+01
(PID.TID 0000.0001) %MON dynstat_sst_mean             =   2.0077543812143E+01
(PID.TID 0000.0001) %MON dynstat_sst_sd               =   2.0726301283797E-01
(PID.TID 0000.0001) %MON dynstat_sst_del2             =   4.5997889967556E-03
(PID.TID 0000.0001) %MON dynstat_sss_max              =   3.5078292120087E+01
(PID.TID 0000.0001) %MON dynstat_sss_min              =   2.8317849625789E+01
(PID.TID 0000.0001) %MON dynstat_sss_mean             =   3.4977030631371E+01
(PID.TID 0000.0001) %MON dynstat_sss_sd               =   2.8135377802740E-01
(PID.TID 0000.0001) %MON dynstat_sss_del2             =   1.0852124292775E-02
(PID.TID 0000.0001) %MON forcing_qnet_max             =   3.6198354176109E+03
(PID.TID 0000.0001) %MON forcing_qnet_min             =  -2.7906782226562E+03
(PID.TID 0000.0001) %MON forcing_qnet_mean            =  -2.4605464037224E+01
(PID.TID 0000.0001) %MON forcing_qnet_sd              =   4.4225595950094E+02
(PID.TID 0000.0001) %MON forcing_qnet_del2            =   5.2378591422148E+00
(PID.TID 0000.0001) %MON forcing_qsw_max              =   0.0000000000000E+00
(PID.TID 0000.0001) %MON forcing_qsw_min              =  -1.0721017562998E+02
(PID.TID 0000.0001) %MON forcing_qsw_mean             =  -2.1261057233213E+01
(PID.TID 0000.0001) %MON forcing_qsw_sd               =   2.9908509043290E+01
(PID.TID 0000.0001) %MON forcing_qsw_del2             =   1.3636767484515E-01
(PID.TID 0000.0001) %MON forcing_empmr_max            =   4.3243519030511E-03
(PID.TID 0000.0001) %MON forcing_empmr_min            =  -6.2135193496943E-02
(PID.TID 0000.0001) %MON forcing_empmr_mean           =  -3.3232274363868E-04
(PID.TID 0000.0001) %MON forcing_empmr_sd             =   2.7838381076785E-03
(PID.TID 0000.0001) %MON forcing_empmr_del2           =   1.0853522997227E-04
(PID.TID 0000.0001) %MON forcing_fu_max               =   4.8282639772781E-01
(PID.TID 0000.0001) %MON forcing_fu_min               =  -5.9197506891946E-01
(PID.TID 0000.0001) %MON forcing_fu_mean              =  -2.0831599712193E-03
(PID.TID 0000.0001) %MON forcing_fu_sd                =   7.8292317895230E-02
(PID.TID 0000.0001) %MON forcing_fu_del2              =   6.6897894186574E-04
(PID.TID 0000.0001) %MON forcing_fv_max               =   3.1834098717169E-01
(PID.TID 0000.0001) %MON forcing_fv_min               =  -3.1742318870496E-01
(PID.TID 0000.0001) %MON forcing_fv_mean              =  -6.5452758824668E-03
(PID.TID 0000.0001) %MON forcing_fv_sd                =   7.0824464534516E-02
(PID.TID 0000.0001) %MON forcing_fv_del2              =   5.5406267627647E-04
(PID.TID 0000.0001) %MON trAdv_CFL_u_max              =   1.6864506322331E-03
(PID.TID 0000.0001) %MON trAdv_CFL_v_max              =   1.3774171827359E-03
(PID.TID 0000.0001) %MON trAdv_CFL_w_max              =   1.1616913867288E-03
(PID.TID 0000.0001) %MON advcfl_uvel_max              =   1.5094999037200E-03
(PID.TID 0000.0001) %MON advcfl_vvel_max              =   1.4337904435650E-03
(PID.TID 0000.0001) %MON advcfl_wvel_max              =   2.1612241216328E-03
(PID.TID 0000.0001) %MON advcfl_W_hf_max              =   1.1941898479881E-03
(PID.TID 0000.0001) %MON pe_b_mean                    =   9.1238397005935E-06
(PID.TID 0000.0001) %MON ke_max                       =   1.2112964473730E-01
(PID.TID 0000.0001) %MON ke_mean                      =   3.0544048980175E-05
(PID.TID 0000.0001) %MON ke_vol                       =   1.3398195465014E+18
(PID.TID 0000.0001) %MON vort_r_min                   =  -2.4199137270652E-06
(PID.TID 0000.0001) %MON vort_r_max                   =   2.3758233516060E-06
(PID.TID 0000.0001) %MON vort_a_mean                  =  -2.0549865324846E-05
(PID.TID 0000.0001) %MON vort_a_sd                    =   7.5259401296428E-05
(PID.TID 0000.0001) %MON vort_p_mean                  =  -2.4783203924327E-05
(PID.TID 0000.0001) %MON vort_p_sd                    =   1.2810503912764E-04
(PID.TID 0000.0001) %MON surfExpan_theta_mean         =  -2.3910581749391E-07
(PID.TID 0000.0001) %MON surfExpan_salt_mean          =   7.2309486206798E-07
(PID.TID 0000.0001) // =======================================================
(PID.TID 0000.0001) // End MONITOR dynamic field statistics
(PID.TID 0000.0001) // =======================================================
(PID.TID 0000.0001) // =======================================================
(PID.TID 0000.0001) // Begin MONITOR SEAICE statistics
(PID.TID 0000.0001) // =======================================================
(PID.TID 0000.0001) %MON seaice_tsnumber              =                    92
(PID.TID 0000.0001) %MON seaice_time_sec              =   8.2800000000000E+04
(PID.TID 0000.0001) %MON seaice_uice_max              =   2.7883235616942E-01
(PID.TID 0000.0001) %MON seaice_uice_min              =  -3.8391566785569E-01
(PID.TID 0000.0001) %MON seaice_uice_mean             =  -6.4714991565842E-03
(PID.TID 0000.0001) %MON seaice_uice_sd               =   4.1797131409814E-02
(PID.TID 0000.0001) %MON seaice_uice_del2             =   7.7814408898952E-04
(PID.TID 0000.0001) %MON seaice_vice_max              =   3.2953752404042E-01
(PID.TID 0000.0001) %MON seaice_vice_min              =  -2.8258558246370E-01
(PID.TID 0000.0001) %MON seaice_vice_mean             =  -7.5267254919424E-03
(PID.TID 0000.0001) %MON seaice_vice_sd               =   4.6433688448917E-02
(PID.TID 0000.0001) %MON seaice_vice_del2             =   7.8629791722237E-04
(PID.TID 0000.0001) %MON seaice_area_max              =   9.7584848747840E-01
(PID.TID 0000.0001) %MON seaice_area_min              =   0.0000000000000E+00
(PID.TID 0000.0001) %MON seaice_area_mean             =   6.0301866494941E-02
(PID.TID 0000.0001) %MON seaice_area_sd               =   2.1324076022621E-01
(PID.TID 0000.0001) %MON seaice_area_del2             =   1.4130270191704E-03
(PID.TID 0000.0001) %MON seaice_heff_max              =   8.1976375331176E+00
(PID.TID 0000.0001) %MON seaice_heff_min              =   0.0000000000000E+00
(PID.TID 0000.0001) %MON seaice_heff_mean             =   1.8996993873814E-01
(PID.TID 0000.0001) %MON seaice_heff_sd               =   9.3233992360569E-01
(PID.TID 0000.0001) %MON seaice_heff_del2             =   6.0821292799616E-03
(PID.TID 0000.0001) %MON seaice_hsnow_max             =   1.9661938679973E+00
(PID.TID 0000.0001) %MON seaice_hsnow_min             =   0.0000000000000E+00
(PID.TID 0000.0001) %MON seaice_hsnow_mean            =   2.1083698182845E-02
(PID.TID 0000.0001) %MON seaice_hsnow_sd              =   1.1417460787230E-01
(PID.TID 0000.0001) %MON seaice_hsnow_del2            =   1.4062049752033E-03
(PID.TID 0000.0001) // =======================================================
(PID.TID 0000.0001) // End MONITOR SEAICE statistics
(PID.TID 0000.0001) // =======================================================
 Compute Stats, Diag. #    211  SIarea    vol(   0 ): 1.456E+15  Parms: SM      M1      
 Compute Stats, Diag. #    214  SIheff    vol(   0 ): 1.456E+15  Parms: SM      M1      
 Compute Stats, Diag. #    216  SIhsnow   vol(   0 ): 1.456E+15  Parms: SM      M1      
 Compute Stats, Diag. #     83  sIceLoad  vol(   0 ): 1.456E+15  Parms: SM      U1      
 Compute Stats, Diag. #    220  SIuice    vol(   0 ): 1.383E+15  Parms: UU      M1      
 Compute Stats, Diag. #    221  SIvice    vol(   0 ): 1.391E+15  Parms: VV      M1      
 Compute Stats, Diag. #    222  SItaux    vol(   0 ): 1.383E+15  Parms: UU      U1      
 Compute Stats, Diag. #    223  SItauy    vol(   0 ): 1.391E+15  Parms: VV      U1      
 Compute Stats, Diag. #    282  SIareaN   vol(   0 ): 7.278E+15  Parms: SM      MX      
 Compute Stats, Diag. #    281  SIheffN   vol(   0 ): 7.278E+15  Parms: SM      MX      
 Compute Stats, Diag. #    283  SIhsnowN  vol(   0 ): 7.278E+15  Parms: SM      MX      
 Compute Stats, Diag. #    287  SIqSnow   vol(   0 ): 7.278E+15  Parms: SM      MX      
 Compute Stats, Diag. #    286  SIqIce    vol(   0 ): 2.911E+16  Parms: SM      MX      
 Compute Stats, Diag. #    288  SImeltPd  vol(   0 ): 7.278E+15  Parms: SM      MX      
 Compute Stats, Diag. #    285  SItIces   vol(   0 ): 7.278E+15  Parms: SM      MX      
 Compute Stats, Diag. #    289  SIiceAge  vol(   0 ): 7.278E+15  Parms: SM      MX      
 Compute Stats, Diag. #    290  SI_dArea  vol(   0 ): 7.278E+15  Parms: SM      MX      
 Compute Stats, Diag. #    291  SI_dHeff  vol(   0 ): 7.278E+15  Parms: SM      MX      
 Compute Stats, Diag. #    292  SI_dHsnw  vol(   0 ): 7.278E+15  Parms: SM      MX      
 Compute Stats, Diag. #    295  SI_dQSnw  vol(   0 ): 7.278E+15  Parms: SM      MX      
 Compute Stats, Diag. #    294  SI_dQIce  vol(   0 ): 2.911E+16  Parms: SM      MX      
 SEAICE_LSR: Residual Initial ipass,Uice,Vice=    1  2.48502315E-03  1.28387311E-03
 SEAICE_LSR (ipass=   1) iters,dU,Resid=     4  4.01872889E-05  8.71956113E-05
 SEAICE_LSR (ipass=   1) iters,dV,Resid=     4  1.28421201E-05  2.14592936E-05
 SEAICE_LSR: Residual Initial ipass,Uice,Vice=    2  1.48331601E-03  9.06194487E-04
 SEAICE_LSR (ipass=   2) iters,dU,Resid=     4  1.98186716E-05  5.92862583E-05
 SEAICE_LSR (ipass=   2) iters,dV,Resid=     4  9.24692125E-06  1.16951822E-05
 cg2d: Sum(rhs),rhsMax =  -1.32690270591854E+02  3.08542399158826E+01
(PID.TID 0000.0001)      cg2d_init_res =   2.09078603406485E-01
(PID.TID 0000.0001)      cg2d_iters(min,last) =      -1      10
(PID.TID 0000.0001)      cg2d_last_res =   9.25839997584859E-08
(PID.TID 0000.0001) // =======================================================
(PID.TID 0000.0001) // Begin MONITOR dynamic field statistics
(PID.TID 0000.0001) // =======================================================
(PID.TID 0000.0001) %MON time_tsnumber                =                    93
(PID.TID 0000.0001) %MON time_secondsf                =   8.3700000000000E+04
(PID.TID 0000.0001) %MON dynstat_eta_max              =   1.3230092572482E+00
(PID.TID 0000.0001) %MON dynstat_eta_min              =  -7.5499013374455E-01
(PID.TID 0000.0001) %MON dynstat_eta_mean             =   4.7572404739692E-02
(PID.TID 0000.0001) %MON dynstat_eta_sd               =   6.7680243610737E-02
(PID.TID 0000.0001) %MON dynstat_eta_del2             =   1.0403203859074E-03
(PID.TID 0000.0001) %MON dynstat_uvel_max             =   2.3941099094581E-01
(PID.TID 0000.0001) %MON dynstat_uvel_min             =  -5.0691479699791E-01
(PID.TID 0000.0001) %MON dynstat_uvel_mean            =  -1.6876419699912E-04
(PID.TID 0000.0001) %MON dynstat_uvel_sd              =   5.5095685542912E-03
(PID.TID 0000.0001) %MON dynstat_uvel_del2            =   7.1560564185286E-05
(PID.TID 0000.0001) %MON dynstat_vvel_max             =   3.3424057173464E-01
(PID.TID 0000.0001) %MON dynstat_vvel_min             =  -2.9573039892269E-01
(PID.TID 0000.0001) %MON dynstat_vvel_mean            =   3.9669805648953E-04
(PID.TID 0000.0001) %MON dynstat_vvel_sd              =   5.9494355966536E-03
(PID.TID 0000.0001) %MON dynstat_vvel_del2            =   7.1898228104659E-05
(PID.TID 0000.0001) %MON dynstat_wvel_max             =   1.2463554434763E-04
(PID.TID 0000.0001) %MON dynstat_wvel_min             =  -8.8450452242455E-05
(PID.TID 0000.0001) %MON dynstat_wvel_mean            =  -9.4219810162515E-08
(PID.TID 0000.0001) %MON dynstat_wvel_sd              =   5.9121224304879E-06
(PID.TID 0000.0001) %MON dynstat_wvel_del2            =   7.0444698876144E-08
(PID.TID 0000.0001) %MON dynstat_theta_max            =   2.2167600130805E+01
(PID.TID 0000.0001) %MON dynstat_theta_min            =   1.6092555958713E+01
(PID.TID 0000.0001) %MON dynstat_theta_mean           =   1.9997965288697E+01
(PID.TID 0000.0001) %MON dynstat_theta_sd             =   2.8607102984435E-02
(PID.TID 0000.0001) %MON dynstat_theta_del2           =   3.9240019229348E-04
(PID.TID 0000.0001) %MON dynstat_salt_max             =   3.5078300463222E+01
(PID.TID 0000.0001) %MON dynstat_salt_min             =   2.8295506697000E+01
(PID.TID 0000.0001) %MON dynstat_salt_mean            =   3.4999543363148E+01
(PID.TID 0000.0001) %MON dynstat_salt_sd              =   3.3069003717073E-02
(PID.TID 0000.0001) %MON dynstat_salt_del2            =   8.6673544595409E-04
(PID.TID 0000.0001) %MON dynstat_sst_max              =   2.2167600130805E+01
(PID.TID 0000.0001) %MON dynstat_sst_min              =   1.6092555958713E+01
(PID.TID 0000.0001) %MON dynstat_sst_mean             =   2.0078222242737E+01
(PID.TID 0000.0001) %MON dynstat_sst_sd               =   2.0814234058957E-01
(PID.TID 0000.0001) %MON dynstat_sst_del2             =   4.6130495960246E-03
(PID.TID 0000.0001) %MON dynstat_sss_max              =   3.5078300463222E+01
(PID.TID 0000.0001) %MON dynstat_sss_min              =   2.8295506697000E+01
(PID.TID 0000.0001) %MON dynstat_sss_mean             =   3.4976907562357E+01
(PID.TID 0000.0001) %MON dynstat_sss_sd               =   2.8234488277531E-01
(PID.TID 0000.0001) %MON dynstat_sss_del2             =   1.0885542021421E-02
(PID.TID 0000.0001) %MON forcing_qnet_max             =   1.6757011718750E+04
(PID.TID 0000.0001) %MON forcing_qnet_min             =  -2.7579982910156E+03
(PID.TID 0000.0001) %MON forcing_qnet_mean            =  -2.1676105318223E+01
(PID.TID 0000.0001) %MON forcing_qnet_sd              =   5.1746296080830E+02
(PID.TID 0000.0001) %MON forcing_qnet_del2            =   5.2379778462731E+00
(PID.TID 0000.0001) %MON forcing_qsw_max              =   0.0000000000000E+00
(PID.TID 0000.0001) %MON forcing_qsw_min              =  -1.0527929938307E+02
(PID.TID 0000.0001) %MON forcing_qsw_mean             =  -2.1933258216837E+01
(PID.TID 0000.0001) %MON forcing_qsw_sd               =   3.0486354417804E+01
(PID.TID 0000.0001) %MON forcing_qsw_del2             =   1.3461924742394E-01
(PID.TID 0000.0001) %MON forcing_empmr_max            =   4.2798733338714E-03
(PID.TID 0000.0001) %MON forcing_empmr_min            =  -6.1494968831539E-02
(PID.TID 0000.0001) %MON forcing_empmr_mean           =  -3.3080324280245E-04
(PID.TID 0000.0001) %MON forcing_empmr_sd             =   2.7565675368236E-03
(PID.TID 0000.0001) %MON forcing_empmr_del2           =   1.0742842776090E-04
(PID.TID 0000.0001) %MON forcing_fu_max               =   4.8035738935394E-01
(PID.TID 0000.0001) %MON forcing_fu_min               =  -5.9256555260091E-01
(PID.TID 0000.0001) %MON forcing_fu_mean              =  -2.2769921206828E-03
(PID.TID 0000.0001) %MON forcing_fu_sd                =   7.8220525686113E-02
(PID.TID 0000.0001) %MON forcing_fu_del2              =   6.6802871894455E-04
(PID.TID 0000.0001) %MON forcing_fv_max               =   3.1973549385335E-01
(PID.TID 0000.0001) %MON forcing_fv_min               =  -3.1966378650917E-01
(PID.TID 0000.0001) %MON forcing_fv_mean              =  -6.5547041062273E-03
(PID.TID 0000.0001) %MON forcing_fv_sd                =   7.0768099026349E-02
(PID.TID 0000.0001) %MON forcing_fv_del2              =   5.5205993526540E-04
(PID.TID 0000.0001) %MON trAdv_CFL_u_max              =   1.7251375173572E-03
(PID.TID 0000.0001) %MON trAdv_CFL_v_max              =   1.3625741483586E-03
(PID.TID 0000.0001) %MON trAdv_CFL_w_max              =   1.1217362402233E-03
(PID.TID 0000.0001) %MON advcfl_uvel_max              =   1.4623681031713E-03
(PID.TID 0000.0001) %MON advcfl_vvel_max              =   1.4208040924491E-03
(PID.TID 0000.0001) %MON advcfl_wvel_max              =   2.1389554376188E-03
(PID.TID 0000.0001) %MON advcfl_W_hf_max              =   1.1722447962832E-03
(PID.TID 0000.0001) %MON pe_b_mean                    =   9.1170213720179E-06
(PID.TID 0000.0001) %MON ke_max                       =   1.1912176898472E-01
(PID.TID 0000.0001) %MON ke_mean                      =   3.0454528546293E-05
(PID.TID 0000.0001) %MON ke_vol                       =   1.3398196516561E+18
(PID.TID 0000.0001) %MON vort_r_min                   =  -2.4105480837844E-06
(PID.TID 0000.0001) %MON vort_r_max                   =   2.3643490483154E-06
(PID.TID 0000.0001) %MON vort_a_mean                  =  -2.0549865324846E-05
(PID.TID 0000.0001) %MON vort_a_sd                    =   7.5259401908901E-05
(PID.TID 0000.0001) %MON vort_p_mean                  =  -2.4783202037925E-05
(PID.TID 0000.0001) %MON vort_p_sd                    =   1.2810503286560E-04
(PID.TID 0000.0001) %MON surfExpan_theta_mean         =  -2.2069415423052E-07
(PID.TID 0000.0001) %MON surfExpan_salt_mean          =   7.1325972173574E-07
(PID.TID 0000.0001) // =======================================================
(PID.TID 0000.0001) // End MONITOR dynamic field statistics
(PID.TID 0000.0001) // =======================================================
(PID.TID 0000.0001) // =======================================================
(PID.TID 0000.0001) // Begin MONITOR SEAICE statistics
(PID.TID 0000.0001) // =======================================================
(PID.TID 0000.0001) %MON seaice_tsnumber              =                    93
(PID.TID 0000.0001) %MON seaice_time_sec              =   8.3700000000000E+04
(PID.TID 0000.0001) %MON seaice_uice_max              =   2.6052897075017E-01
(PID.TID 0000.0001) %MON seaice_uice_min              =  -3.7163204773781E-01
(PID.TID 0000.0001) %MON seaice_uice_mean             =  -6.6328221531646E-03
(PID.TID 0000.0001) %MON seaice_uice_sd               =   4.1617690131691E-02
(PID.TID 0000.0001) %MON seaice_uice_del2             =   7.7873064712370E-04
(PID.TID 0000.0001) %MON seaice_vice_max              =   3.4799302963022E-01
(PID.TID 0000.0001) %MON seaice_vice_min              =  -2.7539855054488E-01
(PID.TID 0000.0001) %MON seaice_vice_mean             =  -7.3243495716563E-03
(PID.TID 0000.0001) %MON seaice_vice_sd               =   4.6556745823283E-02
(PID.TID 0000.0001) %MON seaice_vice_del2             =   7.7951520264708E-04
(PID.TID 0000.0001) %MON seaice_area_max              =   9.7546150480210E-01
(PID.TID 0000.0001) %MON seaice_area_min              =   0.0000000000000E+00
(PID.TID 0000.0001) %MON seaice_area_mean             =   6.0214017759035E-02
(PID.TID 0000.0001) %MON seaice_area_sd               =   2.1300464365391E-01
(PID.TID 0000.0001) %MON seaice_area_del2             =   1.4094059709540E-03
(PID.TID 0000.0001) %MON seaice_heff_max              =   8.1950273935221E+00
(PID.TID 0000.0001) %MON seaice_heff_min              =   0.0000000000000E+00
(PID.TID 0000.0001) %MON seaice_heff_mean             =   1.8980347612935E-01
(PID.TID 0000.0001) %MON seaice_heff_sd               =   9.3185286211558E-01
(PID.TID 0000.0001) %MON seaice_heff_del2             =   6.0805510954962E-03
(PID.TID 0000.0001) %MON seaice_hsnow_max             =   1.9654604356971E+00
(PID.TID 0000.0001) %MON seaice_hsnow_min             =   0.0000000000000E+00
(PID.TID 0000.0001) %MON seaice_hsnow_mean            =   2.1065098868881E-02
(PID.TID 0000.0001) %MON seaice_hsnow_sd              =   1.1411611534996E-01
(PID.TID 0000.0001) %MON seaice_hsnow_del2            =   1.4056085306664E-03
(PID.TID 0000.0001) // =======================================================
(PID.TID 0000.0001) // End MONITOR SEAICE statistics
(PID.TID 0000.0001) // =======================================================
 Computing Diagnostic #    211  SIarea       Counter:       1   Parms: SM      M1      
 Computing Diagnostic #    214  SIheff       Counter:       1   Parms: SM      M1      
 Computing Diagnostic #    216  SIhsnow      Counter:       1   Parms: SM      M1      
 Computing Diagnostic #     83  sIceLoad     Counter:       1   Parms: SM      U1      
 Computing Diagnostic #    220  SIuice       Counter:       1   Parms: UU      M1      
           Vector  Mate for  SIuice       Diagnostic #    221  SIvice   exists 
 Computing Diagnostic #    221  SIvice       Counter:       1   Parms: VV      M1      
           Vector  Mate for  SIvice       Diagnostic #    220  SIuice   exists 
 Computing Diagnostic #    222  SItaux       Counter:       1   Parms: UU      U1      
           Vector  Mate for  SItaux       Diagnostic #    223  SItauy   exists 
 Computing Diagnostic #    223  SItauy       Counter:       1   Parms: VV      U1      
           Vector  Mate for  SItauy       Diagnostic #    222  SItaux   exists 
 Computing Diagnostic #    284  CPLoWGHT     Counter:       1   Parms: SM      M1      
 Computing Diagnostic #    282  SIareaN      Counter:       1   Parms: SM      MX      
 Computing Diagnostic #    281  SIheffN      Counter:       1   Parms: SM      MX      
 Computing Diagnostic #    283  SIhsnowN     Counter:       1   Parms: SM      MX      
 Computing Diagnostic #    287  SIqSnow      Counter:       1   Parms: SM      MX      
 Computing Diagnostic #    288  SImeltPd     Counter:       1   Parms: SM      MX      
 Computing Diagnostic #    285  SItIces      Counter:       1   Parms: SM      MX      
 Computing Diagnostic #    289  SIiceAge     Counter:       1   Parms: SM      MX      
 Computing Diagnostic #    290  SI_dArea     Counter:       1   Parms: SM      MX      
 Computing Diagnostic #    291  SI_dHeff     Counter:       1   Parms: SM      MX      
 Computing Diagnostic #    292  SI_dHsnw     Counter:       1   Parms: SM      MX      
 Computing Diagnostic #    295  SI_dQSnw     Counter:       1   Parms: SM      MX      
 Computing Diagnostic #    286  SIqIce       Counter:       1   Parms: SM      MX      
 Computing Diagnostic #    294  SI_dQIce     Counter:       1   Parms: SM      MX      
 SEAICE_LSR: Residual Initial ipass,Uice,Vice=    1  2.48837869E-03  1.30560863E-03
 SEAICE_LSR (ipass=   1) iters,dU,Resid=     4  4.22425036E-05  8.86429481E-05
 SEAICE_LSR (ipass=   1) iters,dV,Resid=     4  1.36497151E-05  2.08684732E-05
 SEAICE_LSR: Residual Initial ipass,Uice,Vice=    2  1.56778405E-03  9.00084337E-04
 SEAICE_LSR (ipass=   2) iters,dU,Resid=     4  2.06409451E-05  6.00616370E-05
 SEAICE_LSR (ipass=   2) iters,dV,Resid=     4  1.01588910E-05  1.14312103E-05
 cg2d: Sum(rhs),rhsMax =  -1.34432283142684E+02  3.06377233503707E+01
(PID.TID 0000.0001)      cg2d_init_res =   2.05364568147469E-01
(PID.TID 0000.0001)      cg2d_iters(min,last) =      -1      10
(PID.TID 0000.0001)      cg2d_last_res =   9.47038721177963E-08
(PID.TID 0000.0001) // =======================================================
(PID.TID 0000.0001) // Begin MONITOR dynamic field statistics
(PID.TID 0000.0001) // =======================================================
(PID.TID 0000.0001) %MON time_tsnumber                =                    94
(PID.TID 0000.0001) %MON time_secondsf                =   8.4600000000000E+04
(PID.TID 0000.0001) %MON dynstat_eta_max              =   1.3136390263797E+00
(PID.TID 0000.0001) %MON dynstat_eta_min              =  -7.5028874950015E-01
(PID.TID 0000.0001) %MON dynstat_eta_mean             =   4.7858737526571E-02
(PID.TID 0000.0001) %MON dynstat_eta_sd               =   6.7440622639343E-02
(PID.TID 0000.0001) %MON dynstat_eta_del2             =   1.0481577556568E-03
(PID.TID 0000.0001) %MON dynstat_uvel_max             =   2.2153538802488E-01
(PID.TID 0000.0001) %MON dynstat_uvel_min             =  -4.8846884159286E-01
(PID.TID 0000.0001) %MON dynstat_uvel_mean            =  -1.7067805111957E-04
(PID.TID 0000.0001) %MON dynstat_uvel_sd              =   5.5018766219237E-03
(PID.TID 0000.0001) %MON dynstat_uvel_del2            =   7.1475240405892E-05
(PID.TID 0000.0001) %MON dynstat_vvel_max             =   3.4471622140198E-01
(PID.TID 0000.0001) %MON dynstat_vvel_min             =  -2.9259296361681E-01
(PID.TID 0000.0001) %MON dynstat_vvel_mean            =   3.9757508276833E-04
(PID.TID 0000.0001) %MON dynstat_vvel_sd              =   5.9352516670636E-03
(PID.TID 0000.0001) %MON dynstat_vvel_del2            =   7.1520250426642E-05
(PID.TID 0000.0001) %MON dynstat_wvel_max             =   1.2177343735016E-04
(PID.TID 0000.0001) %MON dynstat_wvel_min             =  -9.0048997744686E-05
(PID.TID 0000.0001) %MON dynstat_wvel_mean            =  -9.5114277969496E-08
(PID.TID 0000.0001) %MON dynstat_wvel_sd              =   5.8893720795874E-06
(PID.TID 0000.0001) %MON dynstat_wvel_del2            =   7.0098615695859E-08
(PID.TID 0000.0001) %MON dynstat_theta_max            =   2.2180137848387E+01
(PID.TID 0000.0001) %MON dynstat_theta_min            =   1.6094425791959E+01
(PID.TID 0000.0001) %MON dynstat_theta_mean           =   1.9997966842499E+01
(PID.TID 0000.0001) %MON dynstat_theta_sd             =   2.8727042518950E-02
(PID.TID 0000.0001) %MON dynstat_theta_del2           =   3.9340824050890E-04
(PID.TID 0000.0001) %MON dynstat_salt_max             =   3.5078308803451E+01
(PID.TID 0000.0001) %MON dynstat_salt_min             =   2.8273614019537E+01
(PID.TID 0000.0001) %MON dynstat_salt_mean            =   3.4999540980932E+01
(PID.TID 0000.0001) %MON dynstat_salt_sd              =   3.3183268001002E-02
(PID.TID 0000.0001) %MON dynstat_salt_del2            =   8.6933136426229E-04
(PID.TID 0000.0001) %MON dynstat_sst_max              =   2.2180137848387E+01
(PID.TID 0000.0001) %MON dynstat_sst_min              =   1.6094425791959E+01
(PID.TID 0000.0001) %MON dynstat_sst_mean             =   2.0078914623592E+01
(PID.TID 0000.0001) %MON dynstat_sst_sd               =   2.0898848556958E-01
(PID.TID 0000.0001) %MON dynstat_sst_del2             =   4.6261515196035E-03
(PID.TID 0000.0001) %MON dynstat_sss_max              =   3.5078308803451E+01
(PID.TID 0000.0001) %MON dynstat_sss_min              =   2.8273614019537E+01
(PID.TID 0000.0001) %MON dynstat_sss_mean             =   3.4976790532287E+01
(PID.TID 0000.0001) %MON dynstat_sss_sd               =   2.8331464123627E-01
(PID.TID 0000.0001) %MON dynstat_sss_del2             =   1.0918168652539E-02
(PID.TID 0000.0001) %MON forcing_qnet_max             =   3.8544729619781E+03
(PID.TID 0000.0001) %MON forcing_qnet_min             =  -2.7239853515625E+03
(PID.TID 0000.0001) %MON forcing_qnet_mean            =  -2.5709135333779E+01
(PID.TID 0000.0001) %MON forcing_qnet_sd              =   4.4445074025884E+02
(PID.TID 0000.0001) %MON forcing_qnet_del2            =   5.2253890373743E+00
(PID.TID 0000.0001) %MON forcing_qsw_max              =   0.0000000000000E+00
(PID.TID 0000.0001) %MON forcing_qsw_min              =  -1.0398326447575E+02
(PID.TID 0000.0001) %MON forcing_qsw_mean             =  -2.2172164179672E+01
(PID.TID 0000.0001) %MON forcing_qsw_sd               =   3.0602089265498E+01
(PID.TID 0000.0001) %MON forcing_qsw_del2             =   1.3374153447353E-01
(PID.TID 0000.0001) %MON forcing_empmr_max            =   4.2359852232039E-03
(PID.TID 0000.0001) %MON forcing_empmr_min            =  -6.0861457139254E-02
(PID.TID 0000.0001) %MON forcing_empmr_mean           =  -3.2928270491140E-04
(PID.TID 0000.0001) %MON forcing_empmr_sd             =   2.7298339628101E-03
(PID.TID 0000.0001) %MON forcing_empmr_del2           =   1.0634348300368E-04
(PID.TID 0000.0001) %MON forcing_fu_max               =   4.8259143342981E-01
(PID.TID 0000.0001) %MON forcing_fu_min               =  -5.9472515307803E-01
(PID.TID 0000.0001) %MON forcing_fu_mean              =  -2.4757607918237E-03
(PID.TID 0000.0001) %MON forcing_fu_sd                =   7.8246634861693E-02
(PID.TID 0000.0001) %MON forcing_fu_del2              =   6.6805298777094E-04
(PID.TID 0000.0001) %MON forcing_fv_max               =   3.2024406737796E-01
(PID.TID 0000.0001) %MON forcing_fv_min               =  -3.2152955664219E-01
(PID.TID 0000.0001) %MON forcing_fv_mean              =  -6.5384484232481E-03
(PID.TID 0000.0001) %MON forcing_fv_sd                =   7.0628431916149E-02
(PID.TID 0000.0001) %MON forcing_fv_del2              =   5.4974709085428E-04
(PID.TID 0000.0001) %MON trAdv_CFL_u_max              =   1.7506031845998E-03
(PID.TID 0000.0001) %MON trAdv_CFL_v_max              =   1.3454495175533E-03
(PID.TID 0000.0001) %MON trAdv_CFL_w_max              =   1.0718256257221E-03
(PID.TID 0000.0001) %MON advcfl_uvel_max              =   1.4091544724455E-03
(PID.TID 0000.0001) %MON advcfl_vvel_max              =   1.4057306304762E-03
(PID.TID 0000.0001) %MON advcfl_wvel_max              =   2.1169202483219E-03
(PID.TID 0000.0001) %MON advcfl_W_hf_max              =   1.1491627957722E-03
(PID.TID 0000.0001) %MON pe_b_mean                    =   9.1102895788886E-06
(PID.TID 0000.0001) %MON ke_max                       =   1.1631670231817E-01
(PID.TID 0000.0001) %MON ke_mean                      =   3.0338003646485E-05
(PID.TID 0000.0001) %MON ke_vol                       =   1.3398197563299E+18
(PID.TID 0000.0001) %MON vort_r_min                   =  -2.3976826729798E-06
(PID.TID 0000.0001) %MON vort_r_max                   =   2.3489241380423E-06
(PID.TID 0000.0001) %MON vort_a_mean                  =  -2.0549865324846E-05
(PID.TID 0000.0001) %MON vort_a_sd                    =   7.5259402811295E-05
(PID.TID 0000.0001) %MON vort_p_mean                  =  -2.4783200156940E-05
(PID.TID 0000.0001) %MON vort_p_sd                    =   1.2810502493094E-04
(PID.TID 0000.0001) %MON surfExpan_theta_mean         =  -2.0198123133152E-07
(PID.TID 0000.0001) %MON surfExpan_salt_mean          =   7.0365074441493E-07
(PID.TID 0000.0001) // =======================================================
(PID.TID 0000.0001) // End MONITOR dynamic field statistics
(PID.TID 0000.0001) // =======================================================
(PID.TID 0000.0001) // =======================================================
(PID.TID 0000.0001) // Begin MONITOR SEAICE statistics
(PID.TID 0000.0001) // =======================================================
(PID.TID 0000.0001) %MON seaice_tsnumber              =                    94
(PID.TID 0000.0001) %MON seaice_time_sec              =   8.4600000000000E+04
(PID.TID 0000.0001) %MON seaice_uice_max              =   2.4215265169717E-01
(PID.TID 0000.0001) %MON seaice_uice_min              =  -3.5786904281493E-01
(PID.TID 0000.0001) %MON seaice_uice_mean             =  -6.7851871180028E-03
(PID.TID 0000.0001) %MON seaice_uice_sd               =   4.1399851369076E-02
(PID.TID 0000.0001) %MON seaice_uice_del2             =   7.7736304422760E-04
(PID.TID 0000.0001) %MON seaice_vice_max              =   3.6270489962098E-01
(PID.TID 0000.0001) %MON seaice_vice_min              =  -2.7243131389902E-01
(PID.TID 0000.0001) %MON seaice_vice_mean             =  -7.1531221821129E-03
(PID.TID 0000.0001) %MON seaice_vice_sd               =   4.6574846858716E-02
(PID.TID 0000.0001) %MON seaice_vice_del2             =   7.7373930500209E-04
(PID.TID 0000.0001) %MON seaice_area_max              =   9.7507451126502E-01
(PID.TID 0000.0001) %MON seaice_area_min              =   0.0000000000000E+00
(PID.TID 0000.0001) %MON seaice_area_mean             =   6.0126267920143E-02
(PID.TID 0000.0001) %MON seaice_area_sd               =   2.1276884517403E-01
(PID.TID 0000.0001) %MON seaice_area_del2             =   1.4058030509737E-03
(PID.TID 0000.0001) %MON seaice_heff_max              =   8.1924177632021E+00
(PID.TID 0000.0001) %MON seaice_heff_min              =   0.0000000000000E+00
(PID.TID 0000.0001) %MON seaice_heff_mean             =   1.8963718087643E-01
(PID.TID 0000.0001) %MON seaice_heff_sd               =   9.3136594310746E-01
(PID.TID 0000.0001) %MON seaice_heff_del2             =   6.0789788809472E-03
(PID.TID 0000.0001) %MON seaice_hsnow_max             =   1.9647359919270E+00
(PID.TID 0000.0001) %MON seaice_hsnow_min             =   0.0000000000000E+00
(PID.TID 0000.0001) %MON seaice_hsnow_mean            =   2.1046502003434E-02
(PID.TID 0000.0001) %MON seaice_hsnow_sd              =   1.1405770384086E-01
(PID.TID 0000.0001) %MON seaice_hsnow_del2            =   1.4050114328954E-03
(PID.TID 0000.0001) // =======================================================
(PID.TID 0000.0001) // End MONITOR SEAICE statistics
(PID.TID 0000.0001) // =======================================================
 SEAICE_LSR: Residual Initial ipass,Uice,Vice=    1  2.41863954E-03  1.27952645E-03
 SEAICE_LSR (ipass=   1) iters,dU,Resid=     4  4.10574038E-05  8.88953350E-05
 SEAICE_LSR (ipass=   1) iters,dV,Resid=     4  1.77246821E-05  2.30968651E-05
 SEAICE_LSR: Residual Initial ipass,Uice,Vice=    2  1.60519375E-03  8.60250975E-04
 SEAICE_LSR (ipass=   2) iters,dU,Resid=     4  1.97997712E-05  6.09311021E-05
 SEAICE_LSR (ipass=   2) iters,dV,Resid=     4  1.22071897E-05  1.22914130E-05
 cg2d: Sum(rhs),rhsMax =  -1.36537258228195E+02  3.03440936580751E+01
(PID.TID 0000.0001)      cg2d_init_res =   2.02254983972949E-01
(PID.TID 0000.0001)      cg2d_iters(min,last) =      -1      10
(PID.TID 0000.0001)      cg2d_last_res =   9.63514294515687E-08
(PID.TID 0000.0001) // =======================================================
(PID.TID 0000.0001) // Begin MONITOR dynamic field statistics
(PID.TID 0000.0001) // =======================================================
(PID.TID 0000.0001) %MON time_tsnumber                =                    95
(PID.TID 0000.0001) %MON time_secondsf                =   8.5500000000000E+04
(PID.TID 0000.0001) %MON dynstat_eta_max              =   1.3009709526278E+00
(PID.TID 0000.0001) %MON dynstat_eta_min              =  -7.2709509016334E-01
(PID.TID 0000.0001) %MON dynstat_eta_mean             =   4.8142265210861E-02
(PID.TID 0000.0001) %MON dynstat_eta_sd               =   6.7185516299771E-02
(PID.TID 0000.0001) %MON dynstat_eta_del2             =   1.0539788528204E-03
(PID.TID 0000.0001) %MON dynstat_uvel_max             =   2.0548880305534E-01
(PID.TID 0000.0001) %MON dynstat_uvel_min             =  -4.7509317610453E-01
(PID.TID 0000.0001) %MON dynstat_uvel_mean            =  -1.7189253067020E-04
(PID.TID 0000.0001) %MON dynstat_uvel_sd              =   5.4945664026290E-03
(PID.TID 0000.0001) %MON dynstat_uvel_del2            =   7.1343361873268E-05
(PID.TID 0000.0001) %MON dynstat_vvel_max             =   3.5137624678080E-01
(PID.TID 0000.0001) %MON dynstat_vvel_min             =  -2.8902970995999E-01
(PID.TID 0000.0001) %MON dynstat_vvel_mean            =   4.0077500574607E-04
(PID.TID 0000.0001) %MON dynstat_vvel_sd              =   5.9160927125690E-03
(PID.TID 0000.0001) %MON dynstat_vvel_del2            =   7.1306559533862E-05
(PID.TID 0000.0001) %MON dynstat_wvel_max             =   1.1894617399508E-04
(PID.TID 0000.0001) %MON dynstat_wvel_min             =  -9.1379032383169E-05
(PID.TID 0000.0001) %MON dynstat_wvel_mean            =  -9.5571640212406E-08
(PID.TID 0000.0001) %MON dynstat_wvel_sd              =   5.8687131166378E-06
(PID.TID 0000.0001) %MON dynstat_wvel_del2            =   6.9777604681336E-08
(PID.TID 0000.0001) %MON dynstat_theta_max            =   2.2192512453831E+01
(PID.TID 0000.0001) %MON dynstat_theta_min            =   1.6096029856106E+01
(PID.TID 0000.0001) %MON dynstat_theta_mean           =   1.9997968372097E+01
(PID.TID 0000.0001) %MON dynstat_theta_sd             =   2.8846713449226E-02
(PID.TID 0000.0001) %MON dynstat_theta_del2           =   3.9439987180679E-04
(PID.TID 0000.0001) %MON dynstat_salt_max             =   3.5078317143933E+01
(PID.TID 0000.0001) %MON dynstat_salt_min             =   2.8252161397111E+01
(PID.TID 0000.0001) %MON dynstat_salt_mean            =   3.4999538632433E+01
(PID.TID 0000.0001) %MON dynstat_salt_sd              =   3.3295393213368E-02
(PID.TID 0000.0001) %MON dynstat_salt_del2            =   8.7186569469145E-04
(PID.TID 0000.0001) %MON dynstat_sst_max              =   2.2192512453831E+01
(PID.TID 0000.0001) %MON dynstat_sst_min              =   1.6096029856106E+01
(PID.TID 0000.0001) %MON dynstat_sst_mean             =   2.0079606159765E+01
(PID.TID 0000.0001) %MON dynstat_sst_sd               =   2.0983277218278E-01
(PID.TID 0000.0001) %MON dynstat_sst_del2             =   4.6390533496081E-03
(PID.TID 0000.0001) %MON dynstat_sss_max              =   3.5078317143933E+01
(PID.TID 0000.0001) %MON dynstat_sss_min              =   2.8252161397111E+01
(PID.TID 0000.0001) %MON dynstat_sss_mean             =   3.4976676291042E+01
(PID.TID 0000.0001) %MON dynstat_sss_sd               =   2.8426548414012E-01
(PID.TID 0000.0001) %MON dynstat_sss_del2             =   1.0950021790336E-02
(PID.TID 0000.0001) %MON forcing_qnet_max             =   3.9918778214259E+03
(PID.TID 0000.0001) %MON forcing_qnet_min             =  -2.6912492675781E+03
(PID.TID 0000.0001) %MON forcing_qnet_mean            =  -2.5304266745003E+01
(PID.TID 0000.0001) %MON forcing_qnet_sd              =   4.4469957876682E+02
(PID.TID 0000.0001) %MON forcing_qnet_del2            =   5.2208074551643E+00
(PID.TID 0000.0001) %MON forcing_qsw_max              =   0.0000000000000E+00
(PID.TID 0000.0001) %MON forcing_qsw_min              =  -1.0360206641631E+02
(PID.TID 0000.0001) %MON forcing_qsw_mean             =  -2.2351612870742E+01
(PID.TID 0000.0001) %MON forcing_qsw_sd               =   3.0661349361145E+01
(PID.TID 0000.0001) %MON forcing_qsw_del2             =   1.3267570749567E-01
(PID.TID 0000.0001) %MON forcing_empmr_max            =   4.1924910619855E-03
(PID.TID 0000.0001) %MON forcing_empmr_min            =  -6.0234662145376E-02
(PID.TID 0000.0001) %MON forcing_empmr_mean           =  -3.2605683693274E-04
(PID.TID 0000.0001) %MON forcing_empmr_sd             =   2.7034981445503E-03
(PID.TID 0000.0001) %MON forcing_empmr_del2           =   1.0527029819973E-04
(PID.TID 0000.0001) %MON forcing_fu_max               =   4.7801791299664E-01
(PID.TID 0000.0001) %MON forcing_fu_min               =  -5.9614340169782E-01
(PID.TID 0000.0001) %MON forcing_fu_mean              =  -2.6826069416652E-03
(PID.TID 0000.0001) %MON forcing_fu_sd                =   7.8233558241727E-02
(PID.TID 0000.0001) %MON forcing_fu_del2              =   6.6753328808691E-04
(PID.TID 0000.0001) %MON forcing_fv_max               =   3.2138900288693E-01
(PID.TID 0000.0001) %MON forcing_fv_min               =  -3.2369099793867E-01
(PID.TID 0000.0001) %MON forcing_fv_mean              =  -6.4910692935824E-03
(PID.TID 0000.0001) %MON forcing_fv_sd                =   7.0458694000768E-02
(PID.TID 0000.0001) %MON forcing_fv_del2              =   5.4701427170219E-04
(PID.TID 0000.0001) %MON trAdv_CFL_u_max              =   1.7627295585967E-03
(PID.TID 0000.0001) %MON trAdv_CFL_v_max              =   1.3261288797969E-03
(PID.TID 0000.0001) %MON trAdv_CFL_w_max              =   1.0546008485830E-03
(PID.TID 0000.0001) %MON advcfl_uvel_max              =   1.3607398409514E-03
(PID.TID 0000.0001) %MON advcfl_vvel_max              =   1.3886113711897E-03
(PID.TID 0000.0001) %MON advcfl_wvel_max              =   2.0951186833174E-03
(PID.TID 0000.0001) %MON advcfl_W_hf_max              =   1.2398774368604E-03
(PID.TID 0000.0001) %MON pe_b_mean                    =   9.1007971244727E-06
(PID.TID 0000.0001) %MON ke_max                       =   1.1276937042068E-01
(PID.TID 0000.0001) %MON ke_mean                      =   3.0197074736735E-05
(PID.TID 0000.0001) %MON ke_vol                       =   1.3398198605226E+18
(PID.TID 0000.0001) %MON vort_r_min                   =  -2.3810828734329E-06
(PID.TID 0000.0001) %MON vort_r_max                   =   2.3296347118913E-06
(PID.TID 0000.0001) %MON vort_a_mean                  =  -2.0549865324846E-05
(PID.TID 0000.0001) %MON vort_a_sd                    =   7.5259403967419E-05
(PID.TID 0000.0001) %MON vort_p_mean                  =  -2.4783198281756E-05
(PID.TID 0000.0001) %MON vort_p_sd                    =   1.2810501527208E-04
(PID.TID 0000.0001) %MON surfExpan_theta_mean         =  -1.8331909911617E-07
(PID.TID 0000.0001) %MON surfExpan_salt_mean          =   6.9433240591361E-07
(PID.TID 0000.0001) // =======================================================
(PID.TID 0000.0001) // End MONITOR dynamic field statistics
(PID.TID 0000.0001) // =======================================================
(PID.TID 0000.0001) // =======================================================
(PID.TID 0000.0001) // Begin MONITOR SEAICE statistics
(PID.TID 0000.0001) // =======================================================
(PID.TID 0000.0001) %MON seaice_tsnumber              =                    95
(PID.TID 0000.0001) %MON seaice_time_sec              =   8.5500000000000E+04
(PID.TID 0000.0001) %MON seaice_uice_max              =   2.2418853938196E-01
(PID.TID 0000.0001) %MON seaice_uice_min              =  -3.4340493206143E-01
(PID.TID 0000.0001) %MON seaice_uice_mean             =  -6.9113903663006E-03
(PID.TID 0000.0001) %MON seaice_uice_sd               =   4.1238183431074E-02
(PID.TID 0000.0001) %MON seaice_uice_del2             =   7.7903874467440E-04
(PID.TID 0000.0001) %MON seaice_vice_max              =   3.7354513138282E-01
(PID.TID 0000.0001) %MON seaice_vice_min              =  -2.6901041768710E-01
(PID.TID 0000.0001) %MON seaice_vice_mean             =  -6.9752407860921E-03
(PID.TID 0000.0001) %MON seaice_vice_sd               =   4.6538312179471E-02
(PID.TID 0000.0001) %MON seaice_vice_del2             =   7.6885435954982E-04
(PID.TID 0000.0001) %MON seaice_area_max              =   9.7468734770382E-01
(PID.TID 0000.0001) %MON seaice_area_min              =   0.0000000000000E+00
(PID.TID 0000.0001) %MON seaice_area_mean             =   6.0038612601354E-02
(PID.TID 0000.0001) %MON seaice_area_sd               =   2.1253335727261E-01
(PID.TID 0000.0001) %MON seaice_area_del2             =   1.4022199141868E-03
(PID.TID 0000.0001) %MON seaice_heff_max              =   8.1898081470188E+00
(PID.TID 0000.0001) %MON seaice_heff_min              =   0.0000000000000E+00
(PID.TID 0000.0001) %MON seaice_heff_mean             =   1.8947104237381E-01
(PID.TID 0000.0001) %MON seaice_heff_sd               =   9.3087912733066E-01
(PID.TID 0000.0001) %MON seaice_heff_del2             =   6.0774102537987E-03
(PID.TID 0000.0001) %MON seaice_hsnow_max             =   1.9640168902064E+00
(PID.TID 0000.0001) %MON seaice_hsnow_min             =   0.0000000000000E+00
(PID.TID 0000.0001) %MON seaice_hsnow_mean            =   2.1027834870681E-02
(PID.TID 0000.0001) %MON seaice_hsnow_sd              =   1.1399930402048E-01
(PID.TID 0000.0001) %MON seaice_hsnow_del2            =   1.4044088456375E-03
(PID.TID 0000.0001) // =======================================================
(PID.TID 0000.0001) // End MONITOR SEAICE statistics
(PID.TID 0000.0001) // =======================================================
 SEAICE_LSR: Residual Initial ipass,Uice,Vice=    1  2.40581235E-03  1.27663497E-03
 SEAICE_LSR (ipass=   1) iters,dU,Resid=     4  3.87758775E-05  9.19713072E-05
 SEAICE_LSR (ipass=   1) iters,dV,Resid=     4  2.15636049E-05  2.36378102E-05
 SEAICE_LSR: Residual Initial ipass,Uice,Vice=    2  1.60471708E-03  8.46885832E-04
 SEAICE_LSR (ipass=   2) iters,dU,Resid=     4  1.84873429E-05  6.30575906E-05
 SEAICE_LSR (ipass=   2) iters,dV,Resid=     4  1.41387166E-05  1.18779961E-05
 cg2d: Sum(rhs),rhsMax =  -1.39032692743881E+02  2.99742359295047E+01
(PID.TID 0000.0001)      cg2d_init_res =   1.99871479821335E-01
(PID.TID 0000.0001)      cg2d_iters(min,last) =      -1      10
(PID.TID 0000.0001)      cg2d_last_res =   9.60867783966684E-08
(PID.TID 0000.0001) // =======================================================
(PID.TID 0000.0001) // Begin MONITOR dynamic field statistics
(PID.TID 0000.0001) // =======================================================
(PID.TID 0000.0001) %MON time_tsnumber                =                    96
(PID.TID 0000.0001) %MON time_secondsf                =   8.6400000000000E+04
(PID.TID 0000.0001) %MON dynstat_eta_max              =   1.2850446603028E+00
(PID.TID 0000.0001) %MON dynstat_eta_min              =  -6.8654752966940E-01
(PID.TID 0000.0001) %MON dynstat_eta_mean             =   4.8424620816754E-02
(PID.TID 0000.0001) %MON dynstat_eta_sd               =   6.6903241304741E-02
(PID.TID 0000.0001) %MON dynstat_eta_del2             =   1.0568052040458E-03
(PID.TID 0000.0001) %MON dynstat_uvel_max             =   2.0706128549898E-01
(PID.TID 0000.0001) %MON dynstat_uvel_min             =  -4.7938119346914E-01
(PID.TID 0000.0001) %MON dynstat_uvel_mean            =  -1.7247795944503E-04
(PID.TID 0000.0001) %MON dynstat_uvel_sd              =   5.4874882287591E-03
(PID.TID 0000.0001) %MON dynstat_uvel_del2            =   7.1170841359817E-05
(PID.TID 0000.0001) %MON dynstat_vvel_max             =   3.5498215124723E-01
(PID.TID 0000.0001) %MON dynstat_vvel_min             =  -2.8505967570069E-01
(PID.TID 0000.0001) %MON dynstat_vvel_mean            =   4.0608675708709E-04
(PID.TID 0000.0001) %MON dynstat_vvel_sd              =   5.8926432680795E-03
(PID.TID 0000.0001) %MON dynstat_vvel_del2            =   7.1252529485125E-05
(PID.TID 0000.0001) %MON dynstat_wvel_max             =   1.1602147265931E-04
(PID.TID 0000.0001) %MON dynstat_wvel_min             =  -9.2609697059226E-05
(PID.TID 0000.0001) %MON dynstat_wvel_mean            =  -9.7091364436054E-08
(PID.TID 0000.0001) %MON dynstat_wvel_sd              =   5.8491835220247E-06
(PID.TID 0000.0001) %MON dynstat_wvel_del2            =   6.9476855448547E-08
(PID.TID 0000.0001) %MON dynstat_theta_max            =   2.2204726902099E+01
(PID.TID 0000.0001) %MON dynstat_theta_min            =   1.6097343817854E+01
(PID.TID 0000.0001) %MON dynstat_theta_mean           =   1.9997969858026E+01
(PID.TID 0000.0001) %MON dynstat_theta_sd             =   2.8966106154494E-02
(PID.TID 0000.0001) %MON dynstat_theta_del2           =   3.9537135459528E-04
(PID.TID 0000.0001) %MON dynstat_salt_max             =   3.5078325676991E+01
(PID.TID 0000.0001) %MON dynstat_salt_min             =   2.8231140346923E+01
(PID.TID 0000.0001) %MON dynstat_salt_mean            =   3.4999536299760E+01
(PID.TID 0000.0001) %MON dynstat_salt_sd              =   3.3405422290362E-02
(PID.TID 0000.0001) %MON dynstat_salt_del2            =   8.7433969590942E-04
(PID.TID 0000.0001) %MON dynstat_sst_max              =   2.2204726902099E+01
(PID.TID 0000.0001) %MON dynstat_sst_min              =   1.6097343817854E+01
(PID.TID 0000.0001) %MON dynstat_sst_mean             =   2.0080292398283E+01
(PID.TID 0000.0001) %MON dynstat_sst_sd               =   2.1067723291113E-01
(PID.TID 0000.0001) %MON dynstat_sst_del2             =   4.6517354681792E-03
(PID.TID 0000.0001) %MON dynstat_sss_max              =   3.5078325676991E+01
(PID.TID 0000.0001) %MON dynstat_sss_min              =   2.8231140346923E+01
(PID.TID 0000.0001) %MON dynstat_sss_mean             =   3.4976562094302E+01
(PID.TID 0000.0001) %MON dynstat_sss_sd               =   2.8519761925091E-01
(PID.TID 0000.0001) %MON dynstat_sss_del2             =   1.0981117489514E-02
(PID.TID 0000.0001) %MON forcing_qnet_max             =   4.1329521400642E+03
(PID.TID 0000.0001) %MON forcing_qnet_min             =  -2.6589096679688E+03
(PID.TID 0000.0001) %MON forcing_qnet_mean            =  -2.4568792991294E+01
(PID.TID 0000.0001) %MON forcing_qnet_sd              =   4.4518172242515E+02
(PID.TID 0000.0001) %MON forcing_qnet_del2            =   5.2234482899295E+00
(PID.TID 0000.0001) %MON forcing_qsw_max              =   0.0000000000000E+00
(PID.TID 0000.0001) %MON forcing_qsw_min              =  -1.0481069690829E+02
(PID.TID 0000.0001) %MON forcing_qsw_mean             =  -2.2468316319434E+01
(PID.TID 0000.0001) %MON forcing_qsw_sd               =   3.0664452374043E+01
(PID.TID 0000.0001) %MON forcing_qsw_del2             =   1.3145606990009E-01
(PID.TID 0000.0001) %MON forcing_empmr_max            =   4.1493903845549E-03
(PID.TID 0000.0001) %MON forcing_empmr_min            =  -5.9614576399326E-02
(PID.TID 0000.0001) %MON forcing_empmr_mean           =  -3.2470894677804E-04
(PID.TID 0000.0001) %MON forcing_empmr_sd             =   2.6773918908259E-03
(PID.TID 0000.0001) %MON forcing_empmr_del2           =   1.0420861505957E-04
(PID.TID 0000.0001) %MON forcing_fu_max               =   4.6886606967749E-01
(PID.TID 0000.0001) %MON forcing_fu_min               =  -5.9866689938204E-01
(PID.TID 0000.0001) %MON forcing_fu_mean              =  -2.8839686528937E-03
(PID.TID 0000.0001) %MON forcing_fu_sd                =   7.8159590946577E-02
(PID.TID 0000.0001) %MON forcing_fu_del2              =   6.6632657746744E-04
(PID.TID 0000.0001) %MON forcing_fv_max               =   3.2225034641164E-01
(PID.TID 0000.0001) %MON forcing_fv_min               =  -3.2590261388859E-01
(PID.TID 0000.0001) %MON forcing_fv_mean              =  -6.4955768436114E-03
(PID.TID 0000.0001) %MON forcing_fv_sd                =   7.0303988970365E-02
(PID.TID 0000.0001) %MON forcing_fv_del2              =   5.4472902829759E-04
(PID.TID 0000.0001) %MON trAdv_CFL_u_max              =   1.7615332525482E-03
(PID.TID 0000.0001) %MON trAdv_CFL_v_max              =   1.3047302216811E-03
(PID.TID 0000.0001) %MON trAdv_CFL_w_max              =   1.0394106035689E-03
(PID.TID 0000.0001) %MON advcfl_uvel_max              =   1.3730213814158E-03
(PID.TID 0000.0001) %MON advcfl_vvel_max              =   1.3695377793529E-03
(PID.TID 0000.0001) %MON advcfl_wvel_max              =   2.0735504834548E-03
(PID.TID 0000.0001) %MON advcfl_W_hf_max              =   1.3263097451458E-03
(PID.TID 0000.0001) %MON pe_b_mean                    =   9.0866971614358E-06
(PID.TID 0000.0001) %MON ke_max                       =   1.0854828926537E-01
(PID.TID 0000.0001) %MON ke_mean                      =   3.0034938243499E-05
(PID.TID 0000.0001) %MON ke_vol                       =   1.3398199636946E+18
(PID.TID 0000.0001) %MON vort_r_min                   =  -2.3605864150610E-06
(PID.TID 0000.0001) %MON vort_r_max                   =   2.3066565345144E-06
(PID.TID 0000.0001) %MON vort_a_mean                  =  -2.0549865324846E-05
(PID.TID 0000.0001) %MON vort_a_sd                    =   7.5259405334058E-05
(PID.TID 0000.0001) %MON vort_p_mean                  =  -2.4783196421815E-05
(PID.TID 0000.0001) %MON vort_p_sd                    =   1.2810500400785E-04
(PID.TID 0000.0001) %MON surfExpan_theta_mean         =  -1.6488000981825E-07
(PID.TID 0000.0001) %MON surfExpan_salt_mean          =   6.8537828487084E-07
(PID.TID 0000.0001) // =======================================================
(PID.TID 0000.0001) // End MONITOR dynamic field statistics
(PID.TID 0000.0001) // =======================================================
(PID.TID 0000.0001) // =======================================================
(PID.TID 0000.0001) // Begin MONITOR SEAICE statistics
(PID.TID 0000.0001) // =======================================================
(PID.TID 0000.0001) %MON seaice_tsnumber              =                    96
(PID.TID 0000.0001) %MON seaice_time_sec              =   8.6400000000000E+04
(PID.TID 0000.0001) %MON seaice_uice_max              =   2.0709690488004E-01
(PID.TID 0000.0001) %MON seaice_uice_min              =  -3.2922322867911E-01
(PID.TID 0000.0001) %MON seaice_uice_mean             =  -7.0292964569481E-03
(PID.TID 0000.0001) %MON seaice_uice_sd               =   4.1093200165476E-02
(PID.TID 0000.0001) %MON seaice_uice_del2             =   7.8030622376267E-04
(PID.TID 0000.0001) %MON seaice_vice_max              =   3.8049121233866E-01
(PID.TID 0000.0001) %MON seaice_vice_min              =  -2.6515315079527E-01
(PID.TID 0000.0001) %MON seaice_vice_mean             =  -6.8155213771804E-03
(PID.TID 0000.0001) %MON seaice_vice_sd               =   4.6436881655976E-02
(PID.TID 0000.0001) %MON seaice_vice_del2             =   7.6527170709084E-04
(PID.TID 0000.0001) %MON seaice_area_max              =   9.7430014117944E-01
(PID.TID 0000.0001) %MON seaice_area_min              =   0.0000000000000E+00
(PID.TID 0000.0001) %MON seaice_area_mean             =   5.9951054045115E-02
(PID.TID 0000.0001) %MON seaice_area_sd               =   2.1229817998298E-01
(PID.TID 0000.0001) %MON seaice_area_del2             =   1.3986564239331E-03
(PID.TID 0000.0001) %MON seaice_heff_max              =   8.1871986070514E+00
(PID.TID 0000.0001) %MON seaice_heff_min              =   0.0000000000000E+00
(PID.TID 0000.0001) %MON seaice_heff_mean             =   1.8930507342243E-01
(PID.TID 0000.0001) %MON seaice_heff_sd               =   9.3039244834026E-01
(PID.TID 0000.0001) %MON seaice_heff_del2             =   6.0758443974176E-03
(PID.TID 0000.0001) %MON seaice_hsnow_max             =   1.9632832066419E+00
(PID.TID 0000.0001) %MON seaice_hsnow_min             =   0.0000000000000E+00
(PID.TID 0000.0001) %MON seaice_hsnow_mean            =   2.1009068253079E-02
(PID.TID 0000.0001) %MON seaice_hsnow_sd              =   1.1394061537463E-01
(PID.TID 0000.0001) %MON seaice_hsnow_del2            =   1.4038024706909E-03
(PID.TID 0000.0001) // =======================================================
(PID.TID 0000.0001) // End MONITOR SEAICE statistics
(PID.TID 0000.0001) // =======================================================
 Computing Diagnostic #     86  oceQnet      Counter:      48   Parms: SM      U1      
 Computing Diagnostic #     87  oceQsw       Counter:      48   Parms: SM      U1      
 Computing Diagnostic #     84  oceFWflx     Counter:      48   Parms: SM      U1      
 Computing Diagnostic #     85  oceSflux     Counter:      48   Parms: SM      U1      
 Computing Diagnostic #     80  oceTAUX      Counter:      48   Parms: UU      U1      
           Vector  Mate for  oceTAUX      Diagnostic #     81  oceTAUY  exists 
 Computing Diagnostic #     81  oceTAUY      Counter:      48   Parms: VV      U1      
           Vector  Mate for  oceTAUY      Diagnostic #     80  oceTAUX  exists 
 Computing Diagnostic #     26  THETA        Counter:      48   Parms: SMR     MR      
 Computing Diagnostic #     27  SALT         Counter:      48   Parms: SMR     MR      
 Computing Diagnostic #     30  UVEL         Counter:      48   Parms: UUR     MR      
           Vector  Mate for  UVEL         Diagnostic #     31  VVEL     exists 
 Computing Diagnostic #     31  VVEL         Counter:      48   Parms: VVR     MR      
           Vector  Mate for  VVEL         Diagnostic #     30  UVEL     exists 
 Computing Diagnostic #    211  SIarea       Counter:      48   Parms: SM      M1      
 Computing Diagnostic #    214  SIheff       Counter:      48   Parms: SM      M1      
 Computing Diagnostic #    216  SIhsnow      Counter:      48   Parms: SM      M1      
 Computing Diagnostic #     83  sIceLoad     Counter:      48   Parms: SM      U1      
 Computing Diagnostic #    220  SIuice       Counter:      48   Parms: UU      M1      
           Vector  Mate for  SIuice       Diagnostic #    221  SIvice   exists 
 Computing Diagnostic #    221  SIvice       Counter:      48   Parms: VV      M1      
           Vector  Mate for  SIvice       Diagnostic #    220  SIuice   exists 
 Computing Diagnostic #    222  SItaux       Counter:      48   Parms: UU      U1      
           Vector  Mate for  SItaux       Diagnostic #    223  SItauy   exists 
 Computing Diagnostic #    223  SItauy       Counter:      48   Parms: VV      U1      
           Vector  Mate for  SItauy       Diagnostic #    222  SItaux   exists 
 Compute Stats, Diag. #    211  SIarea    vol(   0 ): 1.456E+15  Parms: SM      M1      
 Compute Stats, Diag. #    214  SIheff    vol(   0 ): 1.456E+15  Parms: SM      M1      
 Compute Stats, Diag. #    216  SIhsnow   vol(   0 ): 1.456E+15  Parms: SM      M1      
 Compute Stats, Diag. #     83  sIceLoad  vol(   0 ): 1.456E+15  Parms: SM      U1      
 Compute Stats, Diag. #    220  SIuice    vol(   0 ): 1.383E+15  Parms: UU      M1      
 Compute Stats, Diag. #    221  SIvice    vol(   0 ): 1.391E+15  Parms: VV      M1      
 Compute Stats, Diag. #    222  SItaux    vol(   0 ): 1.383E+15  Parms: UU      U1      
 Compute Stats, Diag. #    223  SItauy    vol(   0 ): 1.391E+15  Parms: VV      U1      
 Compute Stats, Diag. #    282  SIareaN   vol(   0 ): 7.278E+15  Parms: SM      MX      
 Compute Stats, Diag. #    281  SIheffN   vol(   0 ): 7.278E+15  Parms: SM      MX      
 Compute Stats, Diag. #    283  SIhsnowN  vol(   0 ): 7.278E+15  Parms: SM      MX      
 Compute Stats, Diag. #    287  SIqSnow   vol(   0 ): 7.278E+15  Parms: SM      MX      
 Compute Stats, Diag. #    286  SIqIce    vol(   0 ): 2.911E+16  Parms: SM      MX      
 Compute Stats, Diag. #    288  SImeltPd  vol(   0 ): 7.278E+15  Parms: SM      MX      
 Compute Stats, Diag. #    285  SItIces   vol(   0 ): 7.278E+15  Parms: SM      MX      
 Compute Stats, Diag. #    289  SIiceAge  vol(   0 ): 7.278E+15  Parms: SM      MX      
 Compute Stats, Diag. #    290  SI_dArea  vol(   0 ): 7.278E+15  Parms: SM      MX      
 Compute Stats, Diag. #    291  SI_dHeff  vol(   0 ): 7.278E+15  Parms: SM      MX      
 Compute Stats, Diag. #    292  SI_dHsnw  vol(   0 ): 7.278E+15  Parms: SM      MX      
 Compute Stats, Diag. #    295  SI_dQSnw  vol(   0 ): 7.278E+15  Parms: SM      MX      
 Compute Stats, Diag. #    294  SI_dQIce  vol(   0 ): 2.911E+16  Parms: SM      MX      
(PID.TID 0000.0001) DIAGSTATS_CLOSE_IO: close file: iceStDiag.0000000000.txt , unit=    37
(PID.TID 0000.0001) %CHECKPOINT        96 ckptA
