(PID.TID 0000.0001) 
(PID.TID 0000.0001) // ======================================================
(PID.TID 0000.0001) //                      MITgcm UV
(PID.TID 0000.0001) //                      =========
(PID.TID 0000.0001) // ======================================================
(PID.TID 0000.0001) // execution environment starting up...
(PID.TID 0000.0001) 
(PID.TID 0000.0001) // MITgcmUV version:  checkpoint67b
(PID.TID 0000.0001) // Build user:        jmc
(PID.TID 0000.0001) // Build host:        jaures.mit.edu
(PID.TID 0000.0001) // Build date:        Thu Jun 21 16:49:47 EDT 2018
(PID.TID 0000.0001) 
(PID.TID 0000.0001) // =======================================================
(PID.TID 0000.0001) // Execution Environment parameter file "eedata"
(PID.TID 0000.0001) // =======================================================
(PID.TID 0000.0001) ># Example "eedata" file
(PID.TID 0000.0001) ># Lines beginning "#" are comments
(PID.TID 0000.0001) ># nTx - No. threads per process in X
(PID.TID 0000.0001) ># nTy - No. threads per process in Y
(PID.TID 0000.0001) > &EEPARMS
(PID.TID 0000.0001) > useCubedSphereExchange=.TRUE.,
(PID.TID 0000.0001) > nTx=1,
(PID.TID 0000.0001) > nTy=1,
(PID.TID 0000.0001) >#debugMode=.TRUE.,
(PID.TID 0000.0001) > /
(PID.TID 0000.0001) ># Note: Some systems use & as the namelist terminator (as shown here).
(PID.TID 0000.0001) >#       Other systems use a / character.
(PID.TID 0000.0001) 
(PID.TID 0000.0001) // =======================================================
(PID.TID 0000.0001) // Computational Grid Specification ( see files "SIZE.h" )
(PID.TID 0000.0001) //                                  ( and "eedata"       )
(PID.TID 0000.0001) // =======================================================
(PID.TID 0000.0001)      nPx =    6 ; /* No. processes in X */
(PID.TID 0000.0001)      nPy =    1 ; /* No. processes in Y */
(PID.TID 0000.0001)      nSx =    1 ; /* No. tiles in X per process */
(PID.TID 0000.0001)      nSy =    1 ; /* No. tiles in Y per process */
(PID.TID 0000.0001)      sNx =   32 ; /* Tile size in X */
(PID.TID 0000.0001)      sNy =   32 ; /* Tile size in Y */
(PID.TID 0000.0001)      OLx =    4 ; /* Tile overlap distance in X */
(PID.TID 0000.0001)      OLy =    4 ; /* Tile overlap distance in Y */
(PID.TID 0000.0001)      nTx =    1 ; /* No. threads in X per process */
(PID.TID 0000.0001)      nTy =    1 ; /* No. threads in Y per process */
(PID.TID 0000.0001)       Nr =   15 ; /* No. levels in the vertical   */
(PID.TID 0000.0001)       Nx =  192 ; /* Total domain size in X ( = nPx*nSx*sNx ) */
(PID.TID 0000.0001)       Ny =   32 ; /* Total domain size in Y ( = nPy*nSy*sNy ) */
(PID.TID 0000.0001)   nTiles =    1 ; /* Total no. tiles per process ( = nSx*nSy ) */
(PID.TID 0000.0001)   nProcs =    6 ; /* Total no. processes ( = nPx*nPy ) */
(PID.TID 0000.0001) nThreads =    1 ; /* Total no. threads per process ( = nTx*nTy ) */
(PID.TID 0000.0001) usingMPI =    T ; /* Flag used to control whether MPI is in use */
(PID.TID 0000.0001)                   /*  note: To execute a program with MPI calls */
(PID.TID 0000.0001)                   /*  it must be launched appropriately e.g     */
(PID.TID 0000.0001)                   /*  "mpirun -np 64 ......"                    */
(PID.TID 0000.0001) useCoupler=    F ;/* Flag used to control communications with   */
(PID.TID 0000.0001)                   /*  other model components, through a coupler */
(PID.TID 0000.0001) debugMode =    F ; /* print debug msg. (sequence of S/R calls)  */
(PID.TID 0000.0001) printMapIncludesZeros=    F ; /* print zeros in Std.Output maps */
(PID.TID 0000.0001) maxLengthPrt1D=   65 /* maxLength of 1D array printed to StdOut */
(PID.TID 0000.0001) 
(PID.TID 0000.0001) ======= Starting MPI parallel Run =========
(PID.TID 0000.0001)  My Processor Name (len: 14 ) = jaures.mit.edu
(PID.TID 0000.0001)  Located at (  0,  0) on processor grid (0:  5,0:  0)
(PID.TID 0000.0001)  Origin at  (     1,     1) on global grid (1:   192,1:    32)
(PID.TID 0000.0001)  North neighbor = processor 0000
(PID.TID 0000.0001)  South neighbor = processor 0000
(PID.TID 0000.0001)   East neighbor = processor 0001
(PID.TID 0000.0001)   West neighbor = processor 0005
(PID.TID 0000.0001) // ======================================================
(PID.TID 0000.0001) // Mapping of tiles to threads
(PID.TID 0000.0001) // ======================================================
(PID.TID 0000.0001) // -o- Thread   1, tiles (   1:   1,   1:   1)
(PID.TID 0000.0001) 
(PID.TID 0000.0001) W2_READPARMS: file data.exch2 not found
(PID.TID 0000.0001) => use W2_EXCH2 default: regular 6-facets Cube
(PID.TID 0000.0001) W2_useE2ioLayOut=    T ;/* T: use Exch2 glob IO map; F: use model default */
(PID.TID 0000.0001) W2_mapIO        =  -1 ; /* select option for Exch2 global-IO map */
(PID.TID 0000.0001) W2_printMsg     =  -1 ; /* select option for printing information */
(PID.TID 0000.0001) ===== Start setting W2 TOPOLOGY:
(PID.TID 0000.0001)  write to log-file: w2_tile_topology.0000.log
(PID.TID 0000.0001) =====       setting W2 TOPOLOGY: Done
(PID.TID 0000.0001) 
(PID.TID 0000.0001)  INI_PARMS: opening model parameter file "data"
(PID.TID 0000.0001)  OPEN_COPY_DATA_FILE: opening file data
(PID.TID 0000.0001) // =======================================================
(PID.TID 0000.0001) // Parameter file "data"
(PID.TID 0000.0001) // =======================================================
(PID.TID 0000.0001) ># ====================
(PID.TID 0000.0001) ># | Model parameters |
(PID.TID 0000.0001) ># ====================
(PID.TID 0000.0001) >#
(PID.TID 0000.0001) ># Continuous equation parameters
(PID.TID 0000.0001) > &PARM01
(PID.TID 0000.0001) > tRef=15*20.,
(PID.TID 0000.0001) > sRef=15*35.,
(PID.TID 0000.0001) > viscAh =3.E5,
(PID.TID 0000.0001) > viscAr =1.E-3,
(PID.TID 0000.0001) > diffKrT=3.E-5,
(PID.TID 0000.0001) > diffKrS=3.E-5,
(PID.TID 0000.0001) > ivdc_kappa=10.,
(PID.TID 0000.0001) > implicitDiffusion=.TRUE.,
(PID.TID 0000.0001) > rhonil=1035.,
(PID.TID 0000.0001) > rhoConstFresh=1000.,
(PID.TID 0000.0001) > eosType='JMD95Z',
(PID.TID 0000.0001) > staggerTimeStep=.TRUE.,
(PID.TID 0000.0001) > vectorInvariantMomentum=.TRUE.,
(PID.TID 0000.0001) > implicitFreeSurface=.TRUE.,
(PID.TID 0000.0001) > exactConserv=.TRUE.,
(PID.TID 0000.0001) > select_rStar=2,
(PID.TID 0000.0001) > nonlinFreeSurf=4,
(PID.TID 0000.0001) > useRealFreshWaterFlux=.TRUE.,
(PID.TID 0000.0001) >#allowFreezing=.TRUE.,
(PID.TID 0000.0001) > hFacMin=.1,
(PID.TID 0000.0001) > hFacMinDr=20.,
(PID.TID 0000.0001) > readBinaryPrec=64,
(PID.TID 0000.0001) > useSingleCpuIo=.TRUE.,
(PID.TID 0000.0001) > debugLevel=2,
(PID.TID 0000.0001) > /
(PID.TID 0000.0001) >
(PID.TID 0000.0001) ># Elliptic solver parameters
(PID.TID 0000.0001) > &PARM02
(PID.TID 0000.0001) > /
(PID.TID 0000.0001) >
(PID.TID 0000.0001) ># Time stepping parameters
(PID.TID 0000.0001) > &PARM03
(PID.TID 0000.0001) > nIter0           = 72000,
(PID.TID 0000.0001) >  nTimeSteps       = 96,
(PID.TID 0000.0001) > deltaT           = 900.,
(PID.TID 0000.0001) > monitorFreq      = 1.,
(PID.TID 0000.0001) > abEps            = 0.1,
(PID.TID 0000.0001) > tracForcingOutAB = 1,
(PID.TID 0000.0001) > pickupStrictlyMatch=.FALSE.,
(PID.TID 0000.0001) > /
(PID.TID 0000.0001) >
(PID.TID 0000.0001) ># Gridding parameters
(PID.TID 0000.0001) > &PARM04
(PID.TID 0000.0001) > usingCurvilinearGrid=.TRUE.,
(PID.TID 0000.0001) > horizGridFile='grid_cs32',
(PID.TID 0000.0001) > delR= 50., 70., 100., 140., 190.,
(PID.TID 0000.0001) >       240., 290., 340., 390., 440.,
(PID.TID 0000.0001) >       490., 540., 590., 640., 690.,
(PID.TID 0000.0001) > /
(PID.TID 0000.0001) >
(PID.TID 0000.0001) ># Input datasets
(PID.TID 0000.0001) > &PARM05
(PID.TID 0000.0001) > bathyFile      ='bathy_Hmin50.bin',
(PID.TID 0000.0001) > /
(PID.TID 0000.0001) 
(PID.TID 0000.0001)  INI_PARMS ; starts to read PARM01
(PID.TID 0000.0001)  INI_PARMS ; read PARM01 : OK
(PID.TID 0000.0001)  INI_PARMS ; starts to read PARM02
(PID.TID 0000.0001)  INI_PARMS ; read PARM02 : OK
(PID.TID 0000.0001)  INI_PARMS ; starts to read PARM03
(PID.TID 0000.0001)  INI_PARMS ; read PARM03 : OK
(PID.TID 0000.0001)  INI_PARMS ; starts to read PARM04
(PID.TID 0000.0001)  INI_PARMS ; read PARM04 : OK
(PID.TID 0000.0001)  INI_PARMS ; starts to read PARM05
(PID.TID 0000.0001)  INI_PARMS ; read PARM05 : OK
(PID.TID 0000.0001)  INI_PARMS: finished reading file "data"
(PID.TID 0000.0001)  PACKAGES_BOOT: opening data.pkg
(PID.TID 0000.0001)  OPEN_COPY_DATA_FILE: opening file data.pkg
(PID.TID 0000.0001) // =======================================================
(PID.TID 0000.0001) // Parameter file "data.pkg"
(PID.TID 0000.0001) // =======================================================
(PID.TID 0000.0001) ># Packages
(PID.TID 0000.0001) > &PACKAGES
(PID.TID 0000.0001) > useGMRedi=.TRUE.,
(PID.TID 0000.0001) > useSEAICE=.TRUE.,
(PID.TID 0000.0001) > useDiagnostics=.TRUE.,
(PID.TID 0000.0001) > /
(PID.TID 0000.0001) 
(PID.TID 0000.0001)  PACKAGES_BOOT: finished reading data.pkg
(PID.TID 0000.0001)  PACKAGES_BOOT: On/Off package Summary
 --------  pkgs with a standard "usePKG" On/Off switch in "data.pkg":  --------
 pkg/gmredi               compiled   and   used ( useGMRedi                = T )
 pkg/seaice               compiled   and   used ( useSEAICE                = T )
 pkg/diagnostics          compiled   and   used ( useDiagnostics           = T )
 -------- pkgs without standard "usePKG" On/Off switch in "data.pkg":  --------
 pkg/generic_advdiff      compiled   and   used ( useGAD                   = T )
 pkg/mom_common           compiled   and   used ( momStepping              = T )
 pkg/mom_vecinv           compiled   and   used ( +vectorInvariantMomentum = T )
 pkg/mom_fluxform         compiled but not used ( & not vectorInvariantMom = F )
 pkg/monitor              compiled   and   used ( monitorFreq > 0.         = T )
 pkg/timeave              compiled but not used ( taveFreq > 0.            = F )
 pkg/debug                compiled but not used ( debugMode                = F )
 pkg/exch2                compiled   and   used
 pkg/rw                   compiled   and   used
 pkg/mdsio                compiled   and   used
(PID.TID 0000.0001)  PACKAGES_BOOT: End of package Summary
(PID.TID 0000.0001) 
(PID.TID 0000.0001)  GM_READPARMS: opening data.gmredi
(PID.TID 0000.0001)  OPEN_COPY_DATA_FILE: opening file data.gmredi
(PID.TID 0000.0001) // =======================================================
(PID.TID 0000.0001) // Parameter file "data.gmredi"
(PID.TID 0000.0001) // =======================================================
(PID.TID 0000.0001) ># GM+Redi package parameters:
(PID.TID 0000.0001) >
(PID.TID 0000.0001) >#-from MOM :
(PID.TID 0000.0001) ># GM_background_K: 	G & Mc.W  diffusion coefficient
(PID.TID 0000.0001) ># GM_maxSlope    :	max slope of isopycnals
(PID.TID 0000.0001) ># GM_Scrit       :	transition for scaling diffusion coefficient
(PID.TID 0000.0001) ># GM_Sd          :	half width scaling for diffusion coefficient
(PID.TID 0000.0001) ># GM_taper_scheme:	slope clipping or one of the tapering schemes
(PID.TID 0000.0001) ># GM_Kmin_horiz  :	horizontal diffusion minimum value
(PID.TID 0000.0001) >
(PID.TID 0000.0001) >#-Option parameters (needs to "define" options in GMREDI_OPTIONS.h")
(PID.TID 0000.0001) ># GM_isopycK     :	isopycnal diffusion coefficient (default=GM_background_K)
(PID.TID 0000.0001) ># GM_AdvForm     :	turn on GM Advective form       (default=Skew flux form)
(PID.TID 0000.0001) >
(PID.TID 0000.0001) > &GM_PARM01
(PID.TID 0000.0001) >  GM_background_K    = 800.,
(PID.TID 0000.0001) >  GM_taper_scheme    = 'gkw91',
(PID.TID 0000.0001) >  GM_maxSlope        = 1.e-2,
(PID.TID 0000.0001) >  GM_Kmin_horiz      = 50.,
(PID.TID 0000.0001) >  GM_Scrit           = 4.e-3,
(PID.TID 0000.0001) >  GM_Sd              = 1.e-3,
(PID.TID 0000.0001) ># GM_Visbeck_alpha   = 0.,
(PID.TID 0000.0001) ># GM_Visbeck_length  = 2.e+5,
(PID.TID 0000.0001) ># GM_Visbeck_depth   = 1.e+3,
(PID.TID 0000.0001) ># GM_Visbeck_maxval_K= 2.5e+3,
(PID.TID 0000.0001) > /
(PID.TID 0000.0001) >
(PID.TID 0000.0001) 
(PID.TID 0000.0001)  GM_READPARMS: finished reading data.gmredi
(PID.TID 0000.0001) 
(PID.TID 0000.0001)  SEAICE_READPARMS: opening data.seaice
(PID.TID 0000.0001)  OPEN_COPY_DATA_FILE: opening file data.seaice
(PID.TID 0000.0001) // =======================================================
(PID.TID 0000.0001) // Parameter file "data.seaice"
(PID.TID 0000.0001) // =======================================================
(PID.TID 0000.0001) ># SEAICE parameters
(PID.TID 0000.0001) > &SEAICE_PARM01
(PID.TID 0000.0001) > usePW79thermodynamics= .FALSE.,
(PID.TID 0000.0001) ># SEAICEuseDYNAMICS = .FALSE.,
(PID.TID 0000.0001) >  SEAICEupdateOceanStress=.FALSE.,
(PID.TID 0000.0001) ># SEAICEadvHeff  = .FALSE.,
(PID.TID 0000.0001) ># SEAICEadvArea  = .FALSE.,
(PID.TID 0000.0001) ># SEAICEadvSnow  = .FALSE.,
(PID.TID 0000.0001) ># SEAICEadvSalt  = .FALSE.,
(PID.TID 0000.0001) >#--
(PID.TID 0000.0001) > SEAICE_strength    = 2.6780e+04,
(PID.TID 0000.0001) > OCEAN_drag         = 8.1541e-04,
(PID.TID 0000.0001) > SEAICE_waterDrag   = 5.3508,
(PID.TID 0000.0001) > SEAICE_no_Slip     = .FALSE.,
(PID.TID 0000.0001) > LSR_ERROR          = 1.E-4,
(PID.TID 0000.0001) > SEAICElinearIterMax=  500,
(PID.TID 0000.0001) >#LSR_mixIniGuess    = 1,
(PID.TID 0000.0001) > SEAICEadvScheme    = 77,
(PID.TID 0000.0001) > AreaFile  = 'const100.bin',
(PID.TID 0000.0001) > HeffFile  = 'const+20.bin',
(PID.TID 0000.0001) > HsnowFile = 'const_00.bin',
(PID.TID 0000.0001) > SEAICEwriteState   = .TRUE.,
(PID.TID 0000.0001) >#SEAICE_monFreq = 1800.,
(PID.TID 0000.0001) > /
(PID.TID 0000.0001) >
(PID.TID 0000.0001) > &SEAICE_PARM03
(PID.TID 0000.0001) > /
(PID.TID 0000.0001) 
(PID.TID 0000.0001)  SEAICE_READPARMS: finished reading data.seaice
(PID.TID 0000.0001)  DIAGNOSTICS_READPARMS: opening data.diagnostics
(PID.TID 0000.0001)  OPEN_COPY_DATA_FILE: opening file data.diagnostics
(PID.TID 0000.0001) // =======================================================
(PID.TID 0000.0001) // Parameter file "data.diagnostics"
(PID.TID 0000.0001) // =======================================================
(PID.TID 0000.0001) ># Diagnostic Package Choices
(PID.TID 0000.0001) >#--------------------
(PID.TID 0000.0001) >#  dumpAtLast (logical): always write output at the end of simulation (default=F)
(PID.TID 0000.0001) >#  diag_mnc   (logical): write to NetCDF files (default=useMNC)
(PID.TID 0000.0001) >#--for each output-stream:
(PID.TID 0000.0001) >#  fileName(n) : prefix of the output file name (max 80c long) for outp.stream n
(PID.TID 0000.0001) >#  frequency(n):< 0 : write snap-shot output every |frequency| seconds
(PID.TID 0000.0001) >#               > 0 : write time-average output every frequency seconds
(PID.TID 0000.0001) >#  timePhase(n)     : write at time = timePhase + multiple of |frequency|
(PID.TID 0000.0001) >#    averagingFreq  : frequency (in s) for periodic averaging interval
(PID.TID 0000.0001) >#    averagingPhase : phase     (in s) for periodic averaging interval
(PID.TID 0000.0001) >#    repeatCycle    : number of averaging intervals in 1 cycle
(PID.TID 0000.0001) >#  levels(:,n) : list of levels to write to file (Notes: declared as REAL)
(PID.TID 0000.0001) >#                when this entry is missing, select all common levels of this list
(PID.TID 0000.0001) >#  fields(:,n) : list of selected diagnostics fields (8.c) in outp.stream n
(PID.TID 0000.0001) >#                (see "available_diagnostics.log" file for the full list of diags)
(PID.TID 0000.0001) >#  missing_value(n) : missing value for real-type fields in output file "n"
(PID.TID 0000.0001) >#  fileFlags(n)     : specific code (8c string) for output file "n"
(PID.TID 0000.0001) >#--------------------
(PID.TID 0000.0001) ># This example dumps EXF diagnostics as snapshot after 10 time-steps
(PID.TID 0000.0001) ># Note: EXF air-sea fluxes over Sea-Ice are wrong
(PID.TID 0000.0001) > &DIAGNOSTICS_LIST
(PID.TID 0000.0001) >   dumpAtLast  = .TRUE.,
(PID.TID 0000.0001) >#--
(PID.TID 0000.0001) >    fields(1:10,1)  = 'oceQnet ','oceQsw  ','oceFWflx','oceSflux',
(PID.TID 0000.0001) >                      'oceTAUX ','oceTAUY ',
(PID.TID 0000.0001) >                      'THETA   ','SALT    ','UVEL    ', 'VVEL    ',
(PID.TID 0000.0001) >   fileName(1) = 'surfDiag',
(PID.TID 0000.0001) >  frequency(1) = 43200.,
(PID.TID 0000.0001) >
(PID.TID 0000.0001) >  fields(1:8,2)  = 'SIarea  ','SIheff  ','SIhsnow ','sIceLoad',
(PID.TID 0000.0001) >                   'SIuice  ','SIvice  ','SItaux  ','SItauy  ',
(PID.TID 0000.0001) >   fileName(2) = 'iceDiag',
(PID.TID 0000.0001) >  frequency(2) =  43200.,
(PID.TID 0000.0001) >  missing_value(2) = -999.,
(PID.TID 0000.0001) >
(PID.TID 0000.0001) >  fields(1:9,3)  = 'SIarea  ','SIheff  ','SIhsnow ','sIceLoad',
(PID.TID 0000.0001) >                   'SIuice  ','SIvice  ','SItaux  ','SItauy  ',
(PID.TID 0000.0001) >                   'SDIAG1  ',
(PID.TID 0000.0001) >   fileName(3) = 'iceInst',
(PID.TID 0000.0001) >  frequency(3) = -3600.,
(PID.TID 0000.0001) >  timePhase(3) =  0.,
(PID.TID 0000.0001) >  missing_value(3) = -999.,
(PID.TID 0000.0001) >
(PID.TID 0000.0001) >  fields(1:3,4)  = 'SIareaN ','SIheffN ','SIhsnowN',
(PID.TID 0000.0001) >   fileName(4) = 'iceNcat',
(PID.TID 0000.0001) >  frequency(4) = -3600.,
(PID.TID 0000.0001) >  timePhase(4) =  0.,
(PID.TID 0000.0001) >  fileFlags(4) = 'D       ',
(PID.TID 0000.0001) > /
(PID.TID 0000.0001) >
(PID.TID 0000.0001) >#--------------------
(PID.TID 0000.0001) ># Parameter for Diagnostics of per level statistics:
(PID.TID 0000.0001) >#--------------------
(PID.TID 0000.0001) >#  diagSt_mnc (logical): write stat-diags to NetCDF files (default=diag_mnc)
(PID.TID 0000.0001) >#  diagSt_regMaskFile : file containing the region-mask to read-in
(PID.TID 0000.0001) >#  nSetRegMskFile   : number of region-mask sets within the region-mask file
(PID.TID 0000.0001) >#  set_regMask(i)   : region-mask set-index that identifies the region "i"
(PID.TID 0000.0001) >#  val_regMask(i)   : region "i" identifier value in the region mask
(PID.TID 0000.0001) >#--for each output-stream:
(PID.TID 0000.0001) >#  stat_fName(n) : prefix of the output file name (max 80c long) for outp.stream n
(PID.TID 0000.0001) >#  stat_freq(n):< 0 : write snap-shot output every |stat_freq| seconds
(PID.TID 0000.0001) >#               > 0 : write time-average output every stat_freq seconds
(PID.TID 0000.0001) >#  stat_phase(n)    : write at time = stat_phase + multiple of |stat_freq|
(PID.TID 0000.0001) >#  stat_region(:,n) : list of "regions" (default: 1 region only=global)
(PID.TID 0000.0001) >#  stat_fields(:,n) : list of selected diagnostics fields (8.c) in outp.stream n
(PID.TID 0000.0001) >#                (see "available_diagnostics.log" file for the full list of diags)
(PID.TID 0000.0001) >#--------------------
(PID.TID 0000.0001) > &DIAG_STATIS_PARMS
(PID.TID 0000.0001) > stat_fields(1:8,1)  = 'SIarea  ','SIheff  ','SIhsnow ','sIceLoad',
(PID.TID 0000.0001) >                       'SIuice  ','SIvice  ','SItaux  ','SItauy  ',
(PID.TID 0000.0001) >  stat_fName(1) = 'iceStDiag',
(PID.TID 0000.0001) >   stat_freq(1) = 3600.,
(PID.TID 0000.0001) ># stat_phase(1) = 1800.,
(PID.TID 0000.0001) > /
(PID.TID 0000.0001) 
(PID.TID 0000.0001) S/R DIAGNOSTICS_READPARMS, read namelist "diagnostics_list": start
(PID.TID 0000.0001) S/R DIAGNOSTICS_READPARMS, read namelist "diagnostics_list": OK
(PID.TID 0000.0001) S/R DIAGNOSTICS_READPARMS, read namelist "DIAG_STATIS_PARMS": start
(PID.TID 0000.0001) S/R DIAGNOSTICS_READPARMS, read namelist "DIAG_STATIS_PARMS": OK
(PID.TID 0000.0001)  DIAGNOSTICS_READPARMS: global parameter summary:
(PID.TID 0000.0001)  dumpAtLast = /* always write time-ave diags at the end */
(PID.TID 0000.0001)                   T
(PID.TID 0000.0001)     ;
(PID.TID 0000.0001)  diag_mnc =   /* write NetCDF output files */
(PID.TID 0000.0001)                   F
(PID.TID 0000.0001)     ;
(PID.TID 0000.0001)  useMissingValue = /* put MissingValue where mask = 0 */
(PID.TID 0000.0001)                   F
(PID.TID 0000.0001)     ;
(PID.TID 0000.0001)  diagCG_maxIters = /* max number of iters in diag_cg2d */
(PID.TID 0000.0001)                     150
(PID.TID 0000.0001)     ;
(PID.TID 0000.0001)  diagCG_resTarget = /* residual target for diag_cg2d */
(PID.TID 0000.0001)                 1.000000000000000E-07
(PID.TID 0000.0001)     ;
(PID.TID 0000.0001)  diagCG_pcOffDFac = /* preconditioner off-diagonal factor */
(PID.TID 0000.0001)                 9.611687812379854E-01
(PID.TID 0000.0001)     ;
(PID.TID 0000.0001) -----------------------------------------------------
(PID.TID 0000.0001)  DIAGNOSTICS_READPARMS: active diagnostics summary:
(PID.TID 0000.0001) -----------------------------------------------------
(PID.TID 0000.0001) Creating Output Stream: surfDiag
(PID.TID 0000.0001) Output Frequency:      43200.000000 ; Phase:           0.000000
(PID.TID 0000.0001)  Averaging Freq.:      43200.000000 , Phase:           0.000000 , Cycle:   1
(PID.TID 0000.0001)  missing value: -9.990000000000E+02
(PID.TID 0000.0001)  Levels:    will be set later
(PID.TID 0000.0001)  Fields:    oceQnet  oceQsw   oceFWflx oceSflux oceTAUX  oceTAUY  THETA    SALT     UVEL     VVEL
(PID.TID 0000.0001) Creating Output Stream: iceDiag
(PID.TID 0000.0001) Output Frequency:      43200.000000 ; Phase:           0.000000
(PID.TID 0000.0001)  Averaging Freq.:      43200.000000 , Phase:           0.000000 , Cycle:   1
(PID.TID 0000.0001)  missing value: -9.990000000000E+02
(PID.TID 0000.0001)  Levels:    will be set later
(PID.TID 0000.0001)  Fields:    SIarea   SIheff   SIhsnow  sIceLoad SIuice   SIvice   SItaux   SItauy
(PID.TID 0000.0001) Creating Output Stream: iceInst
(PID.TID 0000.0001) Output Frequency:      -3600.000000 ; Phase:           0.000000
(PID.TID 0000.0001)  Averaging Freq.:          0.000000 , Phase:           0.000000 , Cycle:   1
(PID.TID 0000.0001)  missing value: -9.990000000000E+02
(PID.TID 0000.0001)  Levels:    will be set later
(PID.TID 0000.0001)  Fields:    SIarea   SIheff   SIhsnow  sIceLoad SIuice   SIvice   SItaux   SItauy   SDIAG1
(PID.TID 0000.0001) Creating Output Stream: iceNcat
(PID.TID 0000.0001) Output Frequency:      -3600.000000 ; Phase:           0.000000
(PID.TID 0000.0001)  Averaging Freq.:          0.000000 , Phase:           0.000000 , Cycle:   1
(PID.TID 0000.0001)  missing value: -9.990000000000E+02 ; F-Flags="D       "
(PID.TID 0000.0001)  Levels:    will be set later
(PID.TID 0000.0001)  Fields:    SIareaN  SIheffN  SIhsnowN
(PID.TID 0000.0001) -----------------------------------------------------
(PID.TID 0000.0001)  DIAGNOSTICS_READPARMS: statistics diags. summary:
(PID.TID 0000.0001) Creating Stats. Output Stream: iceStDiag
(PID.TID 0000.0001) Output Frequency:       3600.000000 ; Phase:           0.000000
(PID.TID 0000.0001)  Regions:   0
(PID.TID 0000.0001)  Fields:    SIarea   SIheff   SIhsnow  sIceLoad SIuice   SIvice   SItaux   SItauy
(PID.TID 0000.0001) -----------------------------------------------------
(PID.TID 0000.0001) 
(PID.TID 0000.0001) SET_PARMS: done
(PID.TID 0000.0001) Enter INI_VERTICAL_GRID: setInterFDr=    T ; setCenterDr=    F
(PID.TID 0000.0001) tile:   1 ; Read from file grid_cs32.face001.bin
(PID.TID 0000.0001)   => xC yC dxF dyF rA xG yG dxV dyU rAz dxC dyC rAw rAs dxG dyG AngleCS AngleSN
(PID.TID 0000.0001) %MON XC_max                       =   1.7854351589505E+02
(PID.TID 0000.0001) %MON XC_min                       =  -1.7854351589505E+02
(PID.TID 0000.0001) %MON XC_mean                      =  -4.6999441375798E-15
(PID.TID 0000.0001) %MON XC_sd                        =   1.0355545336287E+02
(PID.TID 0000.0001) %MON XG_max                       =   1.8000000000000E+02
(PID.TID 0000.0001) %MON XG_min                       =  -1.7708797161002E+02
(PID.TID 0000.0001) %MON XG_mean                      =   1.8603515625000E+00
(PID.TID 0000.0001) %MON XG_sd                        =   1.0357130300504E+02
(PID.TID 0000.0001) %MON DXC_max                      =   3.2375185836900E+05
(PID.TID 0000.0001) %MON DXC_min                      =   1.1142031410131E+05
(PID.TID 0000.0001) %MON DXC_mean                     =   2.8605689051214E+05
(PID.TID 0000.0001) %MON DXC_sd                       =   3.4042087138252E+04
(PID.TID 0000.0001) %MON DXF_max                      =   3.2369947500827E+05
(PID.TID 0000.0001) %MON DXF_min                      =   1.2020820513318E+05
(PID.TID 0000.0001) %MON DXF_mean                     =   2.8605437324820E+05
(PID.TID 0000.0001) %MON DXF_sd                       =   3.4050524252539E+04
(PID.TID 0000.0001) %MON DXG_max                      =   3.2375195872773E+05
(PID.TID 0000.0001) %MON DXG_min                      =   1.0098378008791E+05
(PID.TID 0000.0001) %MON DXG_mean                     =   2.8603818508931E+05
(PID.TID 0000.0001) %MON DXG_sd                       =   3.4140406908005E+04
(PID.TID 0000.0001) %MON DXV_max                      =   3.2380418162750E+05
(PID.TID 0000.0001) %MON DXV_min                      =   8.0152299824136E+04
(PID.TID 0000.0001) %MON DXV_mean                     =   2.8603970633619E+05
(PID.TID 0000.0001) %MON DXV_sd                       =   3.4145142117723E+04
(PID.TID 0000.0001) %MON YC_max                       =   8.7940663871962E+01
(PID.TID 0000.0001) %MON YC_min                       =  -8.7940663871962E+01
(PID.TID 0000.0001) %MON YC_mean                      =   0.0000000000000E+00
(PID.TID 0000.0001) %MON YC_sd                        =   3.8676242969072E+01
(PID.TID 0000.0001) %MON YG_max                       =   9.0000000000000E+01
(PID.TID 0000.0001) %MON YG_min                       =  -9.0000000000000E+01
(PID.TID 0000.0001) %MON YG_mean                      =  -1.1842378929335E-15
(PID.TID 0000.0001) %MON YG_sd                        =   3.8676895860710E+01
(PID.TID 0000.0001) %MON DYC_max                      =   3.2375185836900E+05
(PID.TID 0000.0001) %MON DYC_min                      =   1.1142031410131E+05
(PID.TID 0000.0001) %MON DYC_mean                     =   2.8605689051214E+05
(PID.TID 0000.0001) %MON DYC_sd                       =   3.4042087138252E+04
(PID.TID 0000.0001) %MON DYF_max                      =   3.2369947500827E+05
(PID.TID 0000.0001) %MON DYF_min                      =   1.2020820513318E+05
(PID.TID 0000.0001) %MON DYF_mean                     =   2.8605437324820E+05
(PID.TID 0000.0001) %MON DYF_sd                       =   3.4050524252539E+04
(PID.TID 0000.0001) %MON DYG_max                      =   3.2375195872773E+05
(PID.TID 0000.0001) %MON DYG_min                      =   1.0098378008791E+05
(PID.TID 0000.0001) %MON DYG_mean                     =   2.8603818508931E+05
(PID.TID 0000.0001) %MON DYG_sd                       =   3.4140406908005E+04
(PID.TID 0000.0001) %MON DYU_max                      =   3.2380418162750E+05
(PID.TID 0000.0001) %MON DYU_min                      =   8.0152299824136E+04
(PID.TID 0000.0001) %MON DYU_mean                     =   2.8603970633619E+05
(PID.TID 0000.0001) %MON DYU_sd                       =   3.4145142117723E+04
(PID.TID 0000.0001) %MON RA_max                       =   1.0479260248419E+11
(PID.TID 0000.0001) %MON RA_min                       =   1.4019007022556E+10
(PID.TID 0000.0001) %MON RA_mean                      =   8.2992246709265E+10
(PID.TID 0000.0001) %MON RA_sd                        =   1.7509089299457E+10
(PID.TID 0000.0001) %MON RAW_max                      =   1.0480965274559E+11
(PID.TID 0000.0001) %MON RAW_min                      =   1.2166903467143E+10
(PID.TID 0000.0001) %MON RAW_mean                     =   8.2992246709235E+10
(PID.TID 0000.0001) %MON RAW_sd                       =   1.7481917919656E+10
(PID.TID 0000.0001) %MON RAS_max                      =   1.0480965274559E+11
(PID.TID 0000.0001) %MON RAS_min                      =   1.2166903467143E+10
(PID.TID 0000.0001) %MON RAS_mean                     =   8.2992246709235E+10
(PID.TID 0000.0001) %MON RAS_sd                       =   1.7481917919656E+10
(PID.TID 0000.0001) %MON RAZ_max                      =   1.0484349334619E+11
(PID.TID 0000.0001) %MON RAZ_min                      =   8.8317900612505E+09
(PID.TID 0000.0001) %MON RAZ_mean                     =   8.2992246709235E+10
(PID.TID 0000.0001) %MON RAZ_sd                       =   1.7482297311044E+10
(PID.TID 0000.0001) %MON AngleCS_max                  =   9.9999994756719E-01
(PID.TID 0000.0001) %MON AngleCS_min                  =  -9.9968286884824E-01
(PID.TID 0000.0001) %MON AngleCS_mean                 =   3.3078922539000E-01
(PID.TID 0000.0001) %MON AngleCS_sd                   =   6.2496278958502E-01
(PID.TID 0000.0001) %MON AngleSN_max                  =   9.9968286884824E-01
(PID.TID 0000.0001) %MON AngleSN_min                  =  -9.9999994756719E-01
(PID.TID 0000.0001) %MON AngleSN_mean                 =  -3.3078922539000E-01
(PID.TID 0000.0001) %MON AngleSN_sd                   =   6.2496278958502E-01
(PID.TID 0000.0001)  MDS_READ_FIELD: opening global file: bathy_Hmin50.bin
(PID.TID 0000.0001) // =======================================================
(PID.TID 0000.0001) // Field Model R_low (ini_masks_etc)
(PID.TID 0000.0001) // CMIN =         -5.200000000000000E+03
(PID.TID 0000.0001) // CMAX =         -5.000000000000000E+01
(PID.TID 0000.0001) // CINT =          1.907407407407407E+02
(PID.TID 0000.0001) // SYMBOLS (CMIN->CMAX): -abcdefghijklmnopqrstuvwxyz+
(PID.TID 0000.0001) //                  0.0: .
(PID.TID 0000.0001) // RANGE I (Lo:Hi:Step):(    -3:    36:     1)
(PID.TID 0000.0001) // RANGE J (Lo:Hi:Step):(    36:    -3:    -1)
(PID.TID 0000.0001) // RANGE K (Lo:Hi:Step):(   1:   1:   1)
(PID.TID 0000.0001) // =======================================================
(PID.TID 0000.0001) K =   1
(PID.TID 0000.0001) //                I=6       I=16      I=26      I=36
(PID.TID 0000.0001) // |--J--|321012345|789012345|789012345|789012345|
(PID.TID 0000.0001) //     36 cbbc-ddcbcdehkhhmn..++..................
(PID.TID 0000.0001) //     35 dcac--cbbeefjkfefw+..........zpu........
(PID.TID 0000.0001) //     34 d--ba-abcehjnldcclz+........spps........
(PID.TID 0000.0001) //     33 --abbbccceiomkfdbbc+.......+s...........
(PID.TID 0000.0001) //     32 --bddefhhkqqlgfaakqz..v.+..+............
(PID.TID 0000.0001) //     31 abbcffijnpnqneaaat..umrr+s.z............
(PID.TID 0000.0001) //     30 --adgillkkkifcadcx.ymmqzqikvnnps........
(PID.TID 0000.0001) //     29 --cfiljigfjd--efdozy...+ximpnnuz........
(PID.TID 0000.0001) //     28 -abgkhfcccea-bdei........t..............
(PID.TID 0000.0001) //     27 -acghfbaaaa-achmy......................+
(PID.TID 0000.0001) //     26 -adhfca-----bfiv.......................+
(PID.TID 0000.0001) //     25 -achfa------ch+..................w......
(PID.TID 0000.0001) //     24 aaeifa--acbcei...................w......
(PID.TID 0000.0001) //     23 abfida-aabchjk...................zz.....
(PID.TID 0000.0001) //     22 -afhfaa---bfgi....................zz..rn
(PID.TID 0000.0001) //     21 babcgca----abe.....................ysstl
(PID.TID 0000.0001) //     20 fbbbcgfcaa-aae+.......................lc
(PID.TID 0000.0001) //     19 zmfeccdghfeegcbt......................aa
(PID.TID 0000.0001) //     18 ..wifedfkhfegbbcivlqfoz..............jaa
(PID.TID 0000.0001) //     17 ..+wfeefikhgcbbccaaacgn.............icaa
(PID.TID 0000.0001) //     16 ....wiheddeccdfhfbabdfl............jdbad
(PID.TID 0000.0001) //     15 ......ylea--acfihebcbbes..........sfcbbn
(PID.TID 0000.0001) //     14 ........c---acgkhdcc--di..........ofddch
(PID.TID 0000.0001) //     13 .......+b----cfkhec---afz.........nhfdff
(PID.TID 0000.0001) //     12 .......ec----chjhec---ag..........skiqdd
(PID.TID 0000.0001) //     11 ......pdca--achlheba--ai..........nkn.fd
(PID.TID 0000.0001) //     10 ......wfdb--achlhea---an.........uos..dc
(PID.TID 0000.0001) //      9 ......vgec---bfikca--cjl+.......+nnv.+cc
(PID.TID 0000.0001) //      8 .....zleca---afjfca--hdfz.......vkky.jce
(PID.TID 0000.0001) //      7 ...+zohec--abcfkhecbchbdx.......qiht.faa
(PID.TID 0000.0001) //      6 ..+yomfddcaabefkifdchaadt......uqdeisc--
(PID.TID 0000.0001) //      5 ..+nhgffkghccfhkhffgdaackz....uoibcimlaa
(PID.TID 0000.0001) //      4 .+ujhgfllfhdffhkfffca-aady...llnabdopfcb
(PID.TID 0000.0001) //      3 +vjggfcceeffffjlkjgaa---bfvheeln-aesphfd
(PID.TID 0000.0001) //      2 qifeecbbccddefilihecbaacbaajfega-aesqhff
(PID.TID 0000.0001) //      1 ebbbbaaaaaccdfhlhfefdcccaabjefbaaafonhgl
(PID.TID 0000.0001) //      0 -aaaaaaa-aacccfikkhecccbbbaaabaadfkllilm
(PID.TID 0000.0001) //     -1 --aaaaa----aacffiljgfffcca--adfikkiikimi
(PID.TID 0000.0001) //     -2 --aaa-------acdefinmlgiieb-chnnnmlmlfklk
(PID.TID 0000.0001) //     -3 a--a---aa---aedeegknmlgiigcdfhpokkimdkmk
(PID.TID 0000.0001) // =======================================================
(PID.TID 0000.0001) // END OF FIELD                                          =
(PID.TID 0000.0001) // =======================================================
(PID.TID 0000.0001) 
(PID.TID 0000.0001) // =======================================================
(PID.TID 0000.0001) // Field Model Ro_surf (ini_masks_etc)
(PID.TID 0000.0001) // CMIN =          1.000000000000000E+32
(PID.TID 0000.0001) // CMAX =         -1.000000000000000E+32
(PID.TID 0000.0001) // CINT =          0.000000000000000E+00
(PID.TID 0000.0001) // SYMBOLS (CMIN->CMAX): -abcdefghijklmnopqrstuvwxyz+
(PID.TID 0000.0001) //                  0.0: .
(PID.TID 0000.0001) // RANGE I (Lo:Hi:Step):(    -3:    36:     1)
(PID.TID 0000.0001) // RANGE J (Lo:Hi:Step):(    36:    -3:    -1)
(PID.TID 0000.0001) // RANGE K (Lo:Hi:Step):(   1:   1:   1)
(PID.TID 0000.0001) // =======================================================
(PID.TID 0000.0001) // =======================================================
(PID.TID 0000.0001) // END OF FIELD                                          =
(PID.TID 0000.0001) // =======================================================
(PID.TID 0000.0001) 
(PID.TID 0000.0001) // =======================================================
(PID.TID 0000.0001) // Field hFacC at iteration          0
(PID.TID 0000.0001) // CMIN =          1.000000000000000E+00
(PID.TID 0000.0001) // CMAX =          1.000000000000000E+00
(PID.TID 0000.0001) // CINT =          0.000000000000000E+00
(PID.TID 0000.0001) // SYMBOLS (CMIN->CMAX): -abcdefghijklmnopqrstuvwxyz+
(PID.TID 0000.0001) //                  0.0: .
(PID.TID 0000.0001) // RANGE I (Lo:Hi:Step):(    -3:    36:     1)
(PID.TID 0000.0001) // RANGE J (Lo:Hi:Step):(    36:    -3:    -1)
(PID.TID 0000.0001) // RANGE K (Lo:Hi:Step):(   1:   1:   1)
(PID.TID 0000.0001) // =======================================================
(PID.TID 0000.0001) // =======================================================
(PID.TID 0000.0001) // END OF FIELD                                          =
(PID.TID 0000.0001) // =======================================================
(PID.TID 0000.0001) 
(PID.TID 0000.0001) // =======================================================
(PID.TID 0000.0001) // Field hFacW at iteration          0
(PID.TID 0000.0001) // CMIN =          1.000000000000000E+00
(PID.TID 0000.0001) // CMAX =          1.000000000000000E+00
(PID.TID 0000.0001) // CINT =          0.000000000000000E+00
(PID.TID 0000.0001) // SYMBOLS (CMIN->CMAX): -abcdefghijklmnopqrstuvwxyz+
(PID.TID 0000.0001) //                  0.0: .
(PID.TID 0000.0001) // RANGE I (Lo:Hi:Step):(    -3:    36:     1)
(PID.TID 0000.0001) // RANGE J (Lo:Hi:Step):(    36:    -3:    -1)
(PID.TID 0000.0001) // RANGE K (Lo:Hi:Step):(   1:   1:   1)
(PID.TID 0000.0001) // =======================================================
(PID.TID 0000.0001) // =======================================================
(PID.TID 0000.0001) // END OF FIELD                                          =
(PID.TID 0000.0001) // =======================================================
(PID.TID 0000.0001) 
(PID.TID 0000.0001) // =======================================================
(PID.TID 0000.0001) // Field hFacS at iteration          0
(PID.TID 0000.0001) // CMIN =          1.000000000000000E+00
(PID.TID 0000.0001) // CMAX =          1.000000000000000E+00
(PID.TID 0000.0001) // CINT =          0.000000000000000E+00
(PID.TID 0000.0001) // SYMBOLS (CMIN->CMAX): -abcdefghijklmnopqrstuvwxyz+
(PID.TID 0000.0001) //                  0.0: .
(PID.TID 0000.0001) // RANGE I (Lo:Hi:Step):(    -3:    36:     1)
(PID.TID 0000.0001) // RANGE J (Lo:Hi:Step):(    36:    -3:    -1)
(PID.TID 0000.0001) // RANGE K (Lo:Hi:Step):(   1:   1:   1)
(PID.TID 0000.0001) // =======================================================
(PID.TID 0000.0001) // =======================================================
(PID.TID 0000.0001) // END OF FIELD                                          =
(PID.TID 0000.0001) // =======================================================
(PID.TID 0000.0001) 
(PID.TID 0000.0001) GAD_INIT_FIXED: GAD_OlMinSize=  1  0  1
(PID.TID 0000.0001) 
(PID.TID 0000.0001) // ===================================
(PID.TID 0000.0001) // GAD parameters :
(PID.TID 0000.0001) // ===================================
(PID.TID 0000.0001) tempAdvScheme =   /* Temp. Horiz.Advection scheme selector */
(PID.TID 0000.0001)                       2
(PID.TID 0000.0001)     ;
(PID.TID 0000.0001) tempVertAdvScheme =   /* Temp. Vert. Advection scheme selector */
(PID.TID 0000.0001)                       2
(PID.TID 0000.0001)     ;
(PID.TID 0000.0001) tempMultiDimAdvec =   /* use Muti-Dim Advec method for Temp */
(PID.TID 0000.0001)                   F
(PID.TID 0000.0001)     ;
(PID.TID 0000.0001) tempSOM_Advection = /* use 2nd Order Moment Advection for Temp */
(PID.TID 0000.0001)                   F
(PID.TID 0000.0001)     ;
(PID.TID 0000.0001) AdamsBashforthGt = /* apply Adams-Bashforth extrapolation on Gt */
(PID.TID 0000.0001)                   T
(PID.TID 0000.0001)     ;
(PID.TID 0000.0001) AdamsBashforth_T = /* apply Adams-Bashforth extrapolation on Temp */
(PID.TID 0000.0001)                   F
(PID.TID 0000.0001)     ;
(PID.TID 0000.0001) saltAdvScheme =   /* Salt. Horiz.advection scheme selector */
(PID.TID 0000.0001)                       2
(PID.TID 0000.0001)     ;
(PID.TID 0000.0001) saltVertAdvScheme =   /* Salt. Vert. Advection scheme selector */
(PID.TID 0000.0001)                       2
(PID.TID 0000.0001)     ;
(PID.TID 0000.0001) saltMultiDimAdvec =   /* use Muti-Dim Advec method for Salt */
(PID.TID 0000.0001)                   F
(PID.TID 0000.0001)     ;
(PID.TID 0000.0001) saltSOM_Advection = /* use 2nd Order Moment Advection for Salt */
(PID.TID 0000.0001)                   F
(PID.TID 0000.0001)     ;
(PID.TID 0000.0001) AdamsBashforthGs = /* apply Adams-Bashforth extrapolation on Gs */
(PID.TID 0000.0001)                   T
(PID.TID 0000.0001)     ;
(PID.TID 0000.0001) AdamsBashforth_S = /* apply Adams-Bashforth extrapolation on Salt */
(PID.TID 0000.0001)                   F
(PID.TID 0000.0001)     ;
(PID.TID 0000.0001) // ===================================
(PID.TID 0000.0001)  SEAICE_INIT_FIXED:  5 sea ice thickness categories
(PID.TID 0000.0001)  SEAICE_INIT_FIXED: Hlimit =   0.00  0.64  1.39  2.47  4.57 999.9
(PID.TID 0000.0001) // =======================================================
(PID.TID 0000.0001) // Seaice configuration (SEAICE_PARM01) >>> START <<<
(PID.TID 0000.0001) // =======================================================
(PID.TID 0000.0001) 
(PID.TID 0000.0001)    Seaice time stepping configuration   > START <
(PID.TID 0000.0001)    ----------------------------------------------
(PID.TID 0000.0001) SEAICE_deltaTtherm= /* thermodynamic timestep */
(PID.TID 0000.0001)                 9.000000000000000E+02
(PID.TID 0000.0001)     ;
(PID.TID 0000.0001) SEAICE_deltaTdyn  = /* dynamic timestep */
(PID.TID 0000.0001)                 9.000000000000000E+02
(PID.TID 0000.0001)     ;
(PID.TID 0000.0001) SEAICE_deltaTevp  = /* EVP timestep */
(PID.TID 0000.0001)                 1.234567000000000E+05
(PID.TID 0000.0001)     ;
(PID.TID 0000.0001) SEAICEuseBDF2  = /* use backw. differencing for mom. eq. */
(PID.TID 0000.0001)                   F
(PID.TID 0000.0001)     ;
(PID.TID 0000.0001) SEAICEupdateOceanStress= /* update Ocean surf. stress */
(PID.TID 0000.0001)                   F
(PID.TID 0000.0001)     ;
(PID.TID 0000.0001) SEAICErestoreUnderIce  = /* restore T and S under ice */
(PID.TID 0000.0001)                   F
(PID.TID 0000.0001)     ;
(PID.TID 0000.0001) 
(PID.TID 0000.0001)    Seaice dynamics configuration   > START <
(PID.TID 0000.0001)    ------------------------------------------
(PID.TID 0000.0001) SEAICEuseDYNAMICS = /* use dynamics */
(PID.TID 0000.0001)                   T
(PID.TID 0000.0001)     ;
(PID.TID 0000.0001) model grid type   = /* type of sea ice model grid */
(PID.TID 0000.0001)               'C-GRID'
(PID.TID 0000.0001)     ;
(PID.TID 0000.0001) SEAICEuseStrImpCpl = /* use strongly implicit coupling */
(PID.TID 0000.0001)                   F
(PID.TID 0000.0001)     ;
(PID.TID 0000.0001) SEAICEusePicardAsPrecon = /* Picard as preconditioner */
(PID.TID 0000.0001)                   F
(PID.TID 0000.0001)     ;
(PID.TID 0000.0001) SEAICEuseLSR      = /* use default Picard-LSR solver */
(PID.TID 0000.0001)                   T
(PID.TID 0000.0001)     ;
(PID.TID 0000.0001) SEAICEuseKrylov   = /* use Picard-Krylov solver */
(PID.TID 0000.0001)                   F
(PID.TID 0000.0001)     ;
(PID.TID 0000.0001) SEAICEuseEVP      = /* use EVP solver rather than LSR */
(PID.TID 0000.0001)                   F
(PID.TID 0000.0001)     ;
(PID.TID 0000.0001) SEAICEuseJFNK     = /* use JFNK solver */
(PID.TID 0000.0001)                   F
(PID.TID 0000.0001)     ;
(PID.TID 0000.0001) OCEAN_drag        = /* air-ocean drag coefficient */
(PID.TID 0000.0001)                 8.154100000000000E-04
(PID.TID 0000.0001)     ;
(PID.TID 0000.0001) SEAICE_drag       = /* air-ice drag coefficient */
(PID.TID 0000.0001)                 2.000000000000000E-03
(PID.TID 0000.0001)     ;
(PID.TID 0000.0001) SEAICE_drag_south      = /* Southern Ocean SEAICE_drag */
(PID.TID 0000.0001)                 2.000000000000000E-03
(PID.TID 0000.0001)     ;
(PID.TID 0000.0001) SEAICE_waterDrag  = /* water-ice drag * density */
(PID.TID 0000.0001)                 5.350800000000000E+00
(PID.TID 0000.0001)     ;
(PID.TID 0000.0001) SEAICE_waterDrag_south = /* Southern Ocean waterDrag */
(PID.TID 0000.0001)                 5.350800000000000E+00
(PID.TID 0000.0001)     ;
(PID.TID 0000.0001) SEAICEuseTilt     = /* include surface tilt in dyna. */
(PID.TID 0000.0001)                   T
(PID.TID 0000.0001)     ;
(PID.TID 0000.0001) SEAICEuseTEM      = /* use truncated ellipse rheology */
(PID.TID 0000.0001)                   F
(PID.TID 0000.0001)     ;
(PID.TID 0000.0001) SEAICE_strength   = /* sea-ice strength Pstar */
(PID.TID 0000.0001)                 2.678000000000000E+04
(PID.TID 0000.0001)     ;
(PID.TID 0000.0001) SEAICE_cStar      = /* sea-ice strength parameter cStar */
(PID.TID 0000.0001)                 2.000000000000000E+01
(PID.TID 0000.0001)     ;
(PID.TID 0000.0001) SEAICEpressReplFac= /* press. replacement method factor */
(PID.TID 0000.0001)                 1.000000000000000E+00
(PID.TID 0000.0001)     ;
(PID.TID 0000.0001) SEAICE_tensilFac  = /* sea-ice tensile strength factor */
(PID.TID 0000.0001)                 0.000000000000000E+00
(PID.TID 0000.0001)     ;
(PID.TID 0000.0001) SEAICE_tensilDepth= /* crit. depth for tensile strength */
(PID.TID 0000.0001)                 0.000000000000000E+00
(PID.TID 0000.0001)     ;
(PID.TID 0000.0001) SEAICEpresH0   = /* sea-ice strength Heff threshold */
(PID.TID 0000.0001)                 1.000000000000000E+00
(PID.TID 0000.0001)     ;
(PID.TID 0000.0001) SEAICEpresPow0 = /* exponent for Heff<SEAICEpresH0 */
(PID.TID 0000.0001)                       1
(PID.TID 0000.0001)     ;
(PID.TID 0000.0001) SEAICEpresPow1 = /* exponent for Heff>SEAICEpresH0 */
(PID.TID 0000.0001)                       1
(PID.TID 0000.0001)     ;
(PID.TID 0000.0001) SEAICEetaZmethod = /* method computing eta at Z-point */
(PID.TID 0000.0001)                       0
(PID.TID 0000.0001)     ;
(PID.TID 0000.0001) SEAICE_zetaMin    = /* lower bound for viscosity */
(PID.TID 0000.0001)                 0.000000000000000E+00
(PID.TID 0000.0001)     ;
(PID.TID 0000.0001) SEAICE_eccen    = /* elliptical yield curve eccent */
(PID.TID 0000.0001)                 2.000000000000000E+00
(PID.TID 0000.0001)     ;
(PID.TID 0000.0001) SEAICEstressFactor    = /* wind stress scaling factor */
(PID.TID 0000.0001)                 1.000000000000000E+00
(PID.TID 0000.0001)     ;
(PID.TID 0000.0001) SEAICE_airTurnAngle    = /* air-ice turning angle */
(PID.TID 0000.0001)                 0.000000000000000E+00
(PID.TID 0000.0001)     ;
(PID.TID 0000.0001) SEAICE_waterTurnAngle  = /* ice-water turning angle */
(PID.TID 0000.0001)                 0.000000000000000E+00
(PID.TID 0000.0001)     ;
(PID.TID 0000.0001) SEAICEuseMetricTerms = /* use metric terms */
(PID.TID 0000.0001)                   T
(PID.TID 0000.0001)     ;
(PID.TID 0000.0001) SEAICE_no_slip    = /* no slip boundary conditions */
(PID.TID 0000.0001)                   F
(PID.TID 0000.0001)     ;
(PID.TID 0000.0001) SEAICE_2ndOrderBC = /* 2nd order no slip boundary conditions */
(PID.TID 0000.0001)                   F
(PID.TID 0000.0001)     ;
(PID.TID 0000.0001) SEAICE_clipVeloctities = /* impose max. vels. */
(PID.TID 0000.0001)                   F
(PID.TID 0000.0001)     ;
(PID.TID 0000.0001) useHB87stressCoupling  = /* altern. ice-ocean stress */
(PID.TID 0000.0001)                   F
(PID.TID 0000.0001)     ;
(PID.TID 0000.0001) SEAICEscaleSurfStress  = /* scale atm. and ocean-surface stress with AREA */
(PID.TID 0000.0001)                   F
(PID.TID 0000.0001)     ;
(PID.TID 0000.0001) SEAICE_maskRHS    = /* mask RHS of solver */
(PID.TID 0000.0001)                   F
(PID.TID 0000.0001)     ;
(PID.TID 0000.0001) SEAICEaddSnowMass = /* add snow mass to seaiceMassC/U/V */
(PID.TID 0000.0001)                   F
(PID.TID 0000.0001)     ;
(PID.TID 0000.0001) LSR_mixIniGuess = /* mix free-drift sol. into LSR initial Guess */
(PID.TID 0000.0001)                      -1
(PID.TID 0000.0001)     ;
(PID.TID 0000.0001) SEAICE_LSRrelaxU  = /* LSR solver: relaxation parameter */
(PID.TID 0000.0001)                 9.500000000000000E-01
(PID.TID 0000.0001)     ;
(PID.TID 0000.0001) SEAICE_LSRrelaxV  = /* LSR solver: relaxation parameter */
(PID.TID 0000.0001)                 9.500000000000000E-01
(PID.TID 0000.0001)     ;
(PID.TID 0000.0001) LSR_ERROR         = /* sets accuracy of LSR solver */
(PID.TID 0000.0001)                 1.000000000000000E-04
(PID.TID 0000.0001)     ;
(PID.TID 0000.0001) SOLV_NCHECK       = /* test interval for LSR solver */
(PID.TID 0000.0001)                       2
(PID.TID 0000.0001)     ;
(PID.TID 0000.0001) SEAICEuseMultiTileSolver = /* use full domain tri-diag solver */
(PID.TID 0000.0001)                   F
(PID.TID 0000.0001)     ;
(PID.TID 0000.0001) SEAICE_OLx = /* overlap for LSR/preconditioner */
(PID.TID 0000.0001)                       0
(PID.TID 0000.0001)     ;
(PID.TID 0000.0001) SEAICE_OLy = /* overlap for LSR/preconditioner */
(PID.TID 0000.0001)                       0
(PID.TID 0000.0001)     ;
(PID.TID 0000.0001) SEAICEnonLinIterMax = /* max. number of nonlinear solver steps */
(PID.TID 0000.0001)                       2
(PID.TID 0000.0001)     ;
(PID.TID 0000.0001) SEAICElinearIterMax = /* max. number of linear solver steps */
(PID.TID 0000.0001)                     500
(PID.TID 0000.0001)     ;
(PID.TID 0000.0001) SEAICEnonLinTol     = /* non-linear solver tolerance */
(PID.TID 0000.0001)                 0.000000000000000E+00
(PID.TID 0000.0001)     ;
(PID.TID 0000.0001) 
(PID.TID 0000.0001)    Seaice advection diffusion config,   > START <
(PID.TID 0000.0001)    -----------------------------------------------
(PID.TID 0000.0001) SEAICEmomAdvection = /* advect sea ice momentum */
(PID.TID 0000.0001)                   F
(PID.TID 0000.0001)     ;
(PID.TID 0000.0001) SEAICEadvHeff = /* advect effective ice thickness */
(PID.TID 0000.0001)                   T
(PID.TID 0000.0001)     ;
(PID.TID 0000.0001) SEAICEadvArea = /* advect fractional ice area */
(PID.TID 0000.0001)                   T
(PID.TID 0000.0001)     ;
(PID.TID 0000.0001) SEAICEadvSnow = /* advect snow layer together with ice */
(PID.TID 0000.0001)                   T
(PID.TID 0000.0001)     ;
(PID.TID 0000.0001) SEAICEadvScheme   = /* advection scheme for ice */
(PID.TID 0000.0001)                      77
(PID.TID 0000.0001)     ;
(PID.TID 0000.0001) SEAICEadvSchArea   = /* advection scheme for area */
(PID.TID 0000.0001)                      77
(PID.TID 0000.0001)     ;
(PID.TID 0000.0001) SEAICEadvSchHeff   = /* advection scheme for thickness */
(PID.TID 0000.0001)                      77
(PID.TID 0000.0001)     ;
(PID.TID 0000.0001) SEAICEadvSchSnow   = /* advection scheme for snow */
(PID.TID 0000.0001)                      77
(PID.TID 0000.0001)     ;
(PID.TID 0000.0001) SEAICEdiffKhArea   = /* diffusivity (m^2/s) for area */
(PID.TID 0000.0001)                 0.000000000000000E+00
(PID.TID 0000.0001)     ;
(PID.TID 0000.0001) SEAICEdiffKhHeff   = /* diffusivity (m^2/s) for heff */
(PID.TID 0000.0001)                 0.000000000000000E+00
(PID.TID 0000.0001)     ;
(PID.TID 0000.0001) SEAICEdiffKhSnow   = /* diffusivity (m^2/s) for snow */
(PID.TID 0000.0001)                 0.000000000000000E+00
(PID.TID 0000.0001)     ;
(PID.TID 0000.0001) DIFF1             = /* parameter used in advect.F [m/s] */
(PID.TID 0000.0001)                 0.000000000000000E+00
(PID.TID 0000.0001)     ;
(PID.TID 0000.0001) 
(PID.TID 0000.0001)    Seaice thermodynamics configuration   > START <
(PID.TID 0000.0001)    -----------------------------------------------
(PID.TID 0000.0001) SEAICE_rhoIce     = /* density of sea ice (kg/m3) */
(PID.TID 0000.0001)                 9.100000000000000E+02
(PID.TID 0000.0001)     ;
(PID.TID 0000.0001) SEAICE_rhoSnow    = /* density of snow (kg/m3) */
(PID.TID 0000.0001)                 3.300000000000000E+02
(PID.TID 0000.0001)     ;
(PID.TID 0000.0001) SEAICE_rhoAir     = /* density of air (kg/m3) */
(PID.TID 0000.0001)                 1.300000000000000E+00
(PID.TID 0000.0001)     ;
(PID.TID 0000.0001) usePW79thermodynamics  = /* default 0-layer TD */
(PID.TID 0000.0001)                   F
(PID.TID 0000.0001)     ;
(PID.TID 0000.0001)    pkg/seaice thermodynamics is OFF
(PID.TID 0000.0001) 
(PID.TID 0000.0001)    Seaice initialization and IO config.,   > START <
(PID.TID 0000.0001)    -------------------------------------------------
(PID.TID 0000.0001) SEAICE_initialHEFF= /* initial sea-ice thickness */
(PID.TID 0000.0001)                 0.000000000000000E+00
(PID.TID 0000.0001)     ;
(PID.TID 0000.0001) AreaFile = /* Initial ice concentration File */
(PID.TID 0000.0001)               'const100.bin'
(PID.TID 0000.0001)     ;
(PID.TID 0000.0001) HeffFile = /* Initial effective ice thickness File */
(PID.TID 0000.0001)               'const+20.bin'
(PID.TID 0000.0001)     ;
(PID.TID 0000.0001) HsnowFile = /* Initial snow thickness File */
(PID.TID 0000.0001)               'const_00.bin'
(PID.TID 0000.0001)     ;
(PID.TID 0000.0001) uIceFile = /* Initial U-ice velocity File */
(PID.TID 0000.0001)               ''
(PID.TID 0000.0001)     ;
(PID.TID 0000.0001) vIceFile = /* Initial V-ice velocity File */
(PID.TID 0000.0001)               ''
(PID.TID 0000.0001)     ;
(PID.TID 0000.0001) SEAICEwriteState  = /* write sea ice state to file */
(PID.TID 0000.0001)                   T
(PID.TID 0000.0001)     ;
(PID.TID 0000.0001) SEAICE_monFreq  = /* monitor frequency */
(PID.TID 0000.0001)                 1.000000000000000E+00
(PID.TID 0000.0001)     ;
(PID.TID 0000.0001) SEAICE_dumpFreq   = /* dump frequency */
(PID.TID 0000.0001)                 0.000000000000000E+00
(PID.TID 0000.0001)     ;
(PID.TID 0000.0001) SEAICE_taveFreq   = /* time-averaging frequency */
(PID.TID 0000.0001)                 0.000000000000000E+00
(PID.TID 0000.0001)     ;
(PID.TID 0000.0001) SEAICE_mon_stdio  = /* write monitor to std-outp */
(PID.TID 0000.0001)                   T
(PID.TID 0000.0001)     ;
(PID.TID 0000.0001) SEAICE_dump_mdsio = /* write snap-shot   using MDSIO */
(PID.TID 0000.0001)                   T
(PID.TID 0000.0001)     ;
(PID.TID 0000.0001) SEAICE_tave_mdsio = /* write TimeAverage using MDSIO */
(PID.TID 0000.0001)                   T
(PID.TID 0000.0001)     ;
(PID.TID 0000.0001) 
(PID.TID 0000.0001)    Seaice regularization numbers,   > START <
(PID.TID 0000.0001)    -----------------------------------------------
(PID.TID 0000.0001) SEAICE_deltaMin   = /* reduce singularities in Delta */
(PID.TID 0000.0001)                 1.000000000000000E-10
(PID.TID 0000.0001)     ;
(PID.TID 0000.0001) SEAICE_EPS        = /* small number */
(PID.TID 0000.0001)                 1.000000000000000E-10
(PID.TID 0000.0001)     ;
(PID.TID 0000.0001) SEAICE_EPS_SQ     = /* small number squared */
(PID.TID 0000.0001)                 1.000000000000000E-20
(PID.TID 0000.0001)     ;
(PID.TID 0000.0001) SEAICE_area_reg   = /* reduce derivative singularities */
(PID.TID 0000.0001)                 1.000000000000000E-05
(PID.TID 0000.0001)     ;
(PID.TID 0000.0001) SEAICE_hice_reg   = /* reduce derivative singularities */
(PID.TID 0000.0001)                 5.000000000000000E-02
(PID.TID 0000.0001)     ;
(PID.TID 0000.0001) SEAICE_area_floor = /* reduce derivative singularities */
(PID.TID 0000.0001)                 1.000000000000000E-05
(PID.TID 0000.0001)     ;
(PID.TID 0000.0001) 
(PID.TID 0000.0001) // =======================================================
(PID.TID 0000.0001) // Seaice configuration (SEAICE_PARM01) >>> END <<<
(PID.TID 0000.0001) // =======================================================
(PID.TID 0000.0001) 
(PID.TID 0000.0001) ------------------------------------------------------------
(PID.TID 0000.0001) DIAGNOSTICS_SET_LEVELS: done
(PID.TID 0000.0001)  Total Nb of available Diagnostics: ndiagt=   283
(PID.TID 0000.0001)  write list of available Diagnostics to file: available_diagnostics.log
(PID.TID 0000.0001) SETDIAG: Allocate  1 x  1 Levels for Diagnostic #    86 oceQnet
(PID.TID 0000.0001) SETDIAG: Allocate  1 x  1 Levels for Diagnostic #    87 oceQsw
(PID.TID 0000.0001) SETDIAG: Allocate  1 x  1 Levels for Diagnostic #    84 oceFWflx
(PID.TID 0000.0001) SETDIAG: Allocate  1 x  1 Levels for Diagnostic #    85 oceSflux
(PID.TID 0000.0001) SETDIAG: Allocate  1 x  1 Levels for Diagnostic #    80 oceTAUX
(PID.TID 0000.0001) SETDIAG: Allocate  1 x  1 Levels for Diagnostic #    81 oceTAUY
(PID.TID 0000.0001) SETDIAG: Allocate 15 x  1 Levels for Diagnostic #    26 THETA
(PID.TID 0000.0001) SETDIAG: Allocate 15 x  1 Levels for Diagnostic #    27 SALT
(PID.TID 0000.0001) SETDIAG: Allocate 15 x  1 Levels for Diagnostic #    30 UVEL
(PID.TID 0000.0001) SETDIAG: Allocate 15 x  1 Levels for Diagnostic #    31 VVEL
(PID.TID 0000.0001) SETDIAG: Allocate  1 x  1 Levels for Diagnostic #   211 SIarea
(PID.TID 0000.0001) SETDIAG: Allocate  1 x  1 Levels for Diagnostic #   214 SIheff
(PID.TID 0000.0001) SETDIAG: Allocate  1 x  1 Levels for Diagnostic #   216 SIhsnow
(PID.TID 0000.0001) SETDIAG: Allocate  1 x  1 Levels for Diagnostic #    83 sIceLoad
(PID.TID 0000.0001) SETDIAG: Allocate  1 x  1 Levels for Diagnostic #   220 SIuice
(PID.TID 0000.0001) SETDIAG: Allocate  1 x  1 Levels for Diagnostic #   221 SIvice
(PID.TID 0000.0001) SETDIAG: Allocate  1 x  1 Levels for Diagnostic #   222 SItaux
(PID.TID 0000.0001) SETDIAG: Allocate  1 x  1 Levels for Diagnostic #   223 SItauy
(PID.TID 0000.0001) SETDIAG: Allocate  1 x  1 Levels for Diagnostic #   211 SIarea
(PID.TID 0000.0001) SETDIAG: Allocate  1 x  1 Levels for Diagnostic #   214 SIheff
(PID.TID 0000.0001) SETDIAG: Allocate  1 x  1 Levels for Diagnostic #   216 SIhsnow
(PID.TID 0000.0001) SETDIAG: Allocate  1 x  1 Levels for Diagnostic #    83 sIceLoad
(PID.TID 0000.0001) SETDIAG: Allocate  1 x  1 Levels for Diagnostic #   220 SIuice
(PID.TID 0000.0001) SETDIAG: Allocate  1 x  1 Levels for Diagnostic #   221 SIvice
(PID.TID 0000.0001) SETDIAG: Allocate  1 x  1 Levels for Diagnostic #   222 SItaux
(PID.TID 0000.0001) SETDIAG: Allocate  1 x  1 Levels for Diagnostic #   223 SItauy
(PID.TID 0000.0001) SETDIAG: Allocate  1 x  1 Levels for Diagnostic #     1 SDIAG1
(PID.TID 0000.0001) SETDIAG: Allocate  5 x  1 Levels for Diagnostic #   282 SIareaN
(PID.TID 0000.0001) SETDIAG: Allocate  5 x  1 Levels for Diagnostic #   281 SIheffN
(PID.TID 0000.0001) SETDIAG: Allocate  5 x  1 Levels for Diagnostic #   283 SIhsnowN
(PID.TID 0000.0001)   space allocated for all diagnostics:      98 levels
(PID.TID 0000.0001)   set mate pointer for diag #    80  oceTAUX  , Parms: UU      U1 , mate:    81
(PID.TID 0000.0001)   set mate pointer for diag #    81  oceTAUY  , Parms: VV      U1 , mate:    80
(PID.TID 0000.0001)   set mate pointer for diag #    30  UVEL     , Parms: UUR     MR , mate:    31
(PID.TID 0000.0001)   set mate pointer for diag #    31  VVEL     , Parms: VVR     MR , mate:    30
(PID.TID 0000.0001)   set mate pointer for diag #   220  SIuice   , Parms: UU      M1 , mate:   221
(PID.TID 0000.0001)   set mate pointer for diag #   221  SIvice   , Parms: VV      M1 , mate:   220
(PID.TID 0000.0001)   set mate pointer for diag #   222  SItaux   , Parms: UU      U1 , mate:   223
(PID.TID 0000.0001)   set mate pointer for diag #   223  SItauy   , Parms: VV      U1 , mate:   222
(PID.TID 0000.0001)   set mate pointer for diag #   220  SIuice   , Parms: UU      M1 , mate:   221
(PID.TID 0000.0001)   set mate pointer for diag #   221  SIvice   , Parms: VV      M1 , mate:   220
(PID.TID 0000.0001)   set mate pointer for diag #   222  SItaux   , Parms: UU      U1 , mate:   223
(PID.TID 0000.0001)   set mate pointer for diag #   223  SItauy   , Parms: VV      U1 , mate:   222
(PID.TID 0000.0001) DIAGNOSTICS_SET_POINTERS: Set levels for Outp.Stream: surfDiag
(PID.TID 0000.0001)  Levels:       1.
(PID.TID 0000.0001) DIAGNOSTICS_SET_POINTERS: Set levels for Outp.Stream: iceDiag
(PID.TID 0000.0001)  Levels:       1.
(PID.TID 0000.0001) DIAGNOSTICS_SET_POINTERS: Set levels for Outp.Stream: iceInst
(PID.TID 0000.0001)  Levels:       1.
(PID.TID 0000.0001) DIAGNOSTICS_SET_POINTERS: Set levels for Outp.Stream: iceNcat
(PID.TID 0000.0001)  Levels:       1.   2.   3.   4.   5.
(PID.TID 0000.0001) DIAGNOSTICS_SET_POINTERS: done
(PID.TID 0000.0001) ------------------------------------------------------------
(PID.TID 0000.0001) DIAGSTATS_SET_REGIONS: define   0 regions:
(PID.TID 0000.0001) ------------------------------------------------------------
(PID.TID 0000.0001) SETDIAG: Allocate  1 Levels for Stats-Diag #   211 SIarea
(PID.TID 0000.0001) SETDIAG: Allocate  1 Levels for Stats-Diag #   214 SIheff
(PID.TID 0000.0001) SETDIAG: Allocate  1 Levels for Stats-Diag #   216 SIhsnow
(PID.TID 0000.0001) SETDIAG: Allocate  1 Levels for Stats-Diag #    83 sIceLoad
(PID.TID 0000.0001) SETDIAG: Allocate  1 Levels for Stats-Diag #   220 SIuice
(PID.TID 0000.0001) SETDIAG: Allocate  1 Levels for Stats-Diag #   221 SIvice
(PID.TID 0000.0001) SETDIAG: Allocate  1 Levels for Stats-Diag #   222 SItaux
(PID.TID 0000.0001) SETDIAG: Allocate  1 Levels for Stats-Diag #   223 SItauy
(PID.TID 0000.0001)   space allocated for all stats-diags:       8 levels
(PID.TID 0000.0001) DIAGSTATS_SET_POINTERS: done
(PID.TID 0000.0001) ------------------------------------------------------------
(PID.TID 0000.0001) DIAGSTATS_INI_IO: open file: iceStDiag.0000072000.txt , unit=    37
(PID.TID 0000.0001) INI_GLOBAL_DOMAIN: Found  19 CS-corner Pts in the domain
(PID.TID 0000.0001) %MON fCori_max                    =   1.4574827780704E-04
(PID.TID 0000.0001) %MON fCori_min                    =  -1.4574827780704E-04
(PID.TID 0000.0001) %MON fCori_mean                   =   0.0000000000000E+00
(PID.TID 0000.0001) %MON fCori_sd                     =   8.4202189509968E-05
(PID.TID 0000.0001) %MON fCoriG_max                   =   1.4584247033981E-04
(PID.TID 0000.0001) %MON fCoriG_min                   =  -1.4584247033981E-04
(PID.TID 0000.0001) %MON fCoriG_mean                  =   2.2587545260115E-21
(PID.TID 0000.0001) %MON fCoriG_sd                    =   8.4202189509968E-05
(PID.TID 0000.0001) %MON fCoriCos_max                 =   1.4580166994612E-04
(PID.TID 0000.0001) %MON fCoriCos_min                 =   5.2407700865903E-06
(PID.TID 0000.0001) %MON fCoriCos_mean                =   1.1514045869113E-04
(PID.TID 0000.0001) %MON fCoriCos_sd                  =   3.0375849106513E-05
(PID.TID 0000.0001) INI_CG2D: CG2D normalisation factor =  1.9156564154949553E-04
(PID.TID 0000.0001) 
(PID.TID 0000.0001) // =======================================================
(PID.TID 0000.0001) // Model configuration
(PID.TID 0000.0001) // =======================================================
(PID.TID 0000.0001) //
(PID.TID 0000.0001) // "Physical" paramters ( PARM01 in namelist )
(PID.TID 0000.0001) //
(PID.TID 0000.0001) buoyancyRelation = /* Type of relation to get Buoyancy */
(PID.TID 0000.0001)               'OCEANIC'
(PID.TID 0000.0001)     ;
(PID.TID 0000.0001) fluidIsAir   =  /* fluid major constituent is Air */
(PID.TID 0000.0001)                   F
(PID.TID 0000.0001)     ;
(PID.TID 0000.0001) fluidIsWater =  /* fluid major constituent is Water */
(PID.TID 0000.0001)                   T
(PID.TID 0000.0001)     ;
(PID.TID 0000.0001) usingPCoords =  /* use p (or p*) vertical coordinate */
(PID.TID 0000.0001)                   F
(PID.TID 0000.0001)     ;
(PID.TID 0000.0001) usingZCoords =  /* use z (or z*) vertical coordinate */
(PID.TID 0000.0001)                   T
(PID.TID 0000.0001)     ;
(PID.TID 0000.0001) tRef =   /* Reference temperature profile ( oC or K ) */
(PID.TID 0000.0001)    15 @  2.000000000000000E+01              /* K =  1: 15 */
(PID.TID 0000.0001)     ;
(PID.TID 0000.0001) sRef =   /* Reference salinity profile ( psu ) */
(PID.TID 0000.0001)    15 @  3.500000000000000E+01              /* K =  1: 15 */
(PID.TID 0000.0001)     ;
(PID.TID 0000.0001) useStrainTensionVisc= /* Use StrainTension Form of Viscous Operator */
(PID.TID 0000.0001)                   F
(PID.TID 0000.0001)     ;
(PID.TID 0000.0001) useVariableVisc = /* Use variable horizontal viscosity */
(PID.TID 0000.0001)                   F
(PID.TID 0000.0001)     ;
(PID.TID 0000.0001) useHarmonicVisc = /* Use harmonic horizontal viscosity */
(PID.TID 0000.0001)                   T
(PID.TID 0000.0001)     ;
(PID.TID 0000.0001) useBiharmonicVisc= /* Use biharmonic horiz.  viscosity */
(PID.TID 0000.0001)                   F
(PID.TID 0000.0001)     ;
(PID.TID 0000.0001) useSmag3D = /* Use isotropic 3-D Smagorinsky viscosity */
(PID.TID 0000.0001)                   F
(PID.TID 0000.0001)     ;
(PID.TID 0000.0001) viscAh  =   /* Lateral harmonic viscosity ( m^2/s ) */
(PID.TID 0000.0001)                 3.000000000000000E+05
(PID.TID 0000.0001)     ;
(PID.TID 0000.0001) viscA4  =   /* Lateral biharmonic viscosity ( m^4/s ) */
(PID.TID 0000.0001)                 0.000000000000000E+00
(PID.TID 0000.0001)     ;
(PID.TID 0000.0001) no_slip_sides =  /* Viscous BCs: No-slip sides */
(PID.TID 0000.0001)                   T
(PID.TID 0000.0001)     ;
(PID.TID 0000.0001) sideDragFactor = /* side-drag scaling factor (non-dim) */
(PID.TID 0000.0001)                 2.000000000000000E+00
(PID.TID 0000.0001)     ;
(PID.TID 0000.0001) viscArNr = /* vertical profile of vertical viscosity ( m^2/s )*/
(PID.TID 0000.0001)    15 @  1.000000000000000E-03              /* K =  1: 15 */
(PID.TID 0000.0001)     ;
(PID.TID 0000.0001) no_slip_bottom =  /* Viscous BCs: No-slip bottom */
(PID.TID 0000.0001)                   T
(PID.TID 0000.0001)     ;
(PID.TID 0000.0001) bottomVisc_pCell = /* Partial-cell in bottom Visc. BC */
(PID.TID 0000.0001)                   F
(PID.TID 0000.0001)     ;
(PID.TID 0000.0001) bottomDragLinear = /* linear bottom-drag coefficient ( m/s ) */
(PID.TID 0000.0001)                 0.000000000000000E+00
(PID.TID 0000.0001)     ;
(PID.TID 0000.0001) bottomDragQuadratic = /* quadratic bottom-drag coefficient (-) */
(PID.TID 0000.0001)                 0.000000000000000E+00
(PID.TID 0000.0001)     ;
(PID.TID 0000.0001) selectBotDragQuadr = /* select quadratic bottom drag options */
(PID.TID 0000.0001)                      -1
(PID.TID 0000.0001)     ;
(PID.TID 0000.0001) diffKhT =   /* Laplacian diffusion of heat laterally ( m^2/s ) */
(PID.TID 0000.0001)                 0.000000000000000E+00
(PID.TID 0000.0001)     ;
(PID.TID 0000.0001) diffK4T =   /* Biharmonic diffusion of heat laterally ( m^4/s ) */
(PID.TID 0000.0001)                 0.000000000000000E+00
(PID.TID 0000.0001)     ;
(PID.TID 0000.0001) diffKhS =   /* Laplacian diffusion of salt laterally ( m^2/s ) */
(PID.TID 0000.0001)                 0.000000000000000E+00
(PID.TID 0000.0001)     ;
(PID.TID 0000.0001) diffK4S =   /* Biharmonic diffusion of salt laterally ( m^4/s ) */
(PID.TID 0000.0001)                 0.000000000000000E+00
(PID.TID 0000.0001)     ;
(PID.TID 0000.0001) diffKrNrT = /* vertical profile of vertical diffusion of Temp ( m^2/s )*/
(PID.TID 0000.0001)    15 @  3.000000000000000E-05              /* K =  1: 15 */
(PID.TID 0000.0001)     ;
(PID.TID 0000.0001) diffKrNrS = /* vertical profile of vertical diffusion of Salt ( m^2/s )*/
(PID.TID 0000.0001)    15 @  3.000000000000000E-05              /* K =  1: 15 */
(PID.TID 0000.0001)     ;
(PID.TID 0000.0001) diffKrBL79surf = /* Surface diffusion for Bryan and Lewis 79 ( m^2/s ) */
(PID.TID 0000.0001)                 0.000000000000000E+00
(PID.TID 0000.0001)     ;
(PID.TID 0000.0001) diffKrBL79deep = /* Deep diffusion for Bryan and Lewis 1979 ( m^2/s ) */
(PID.TID 0000.0001)                 0.000000000000000E+00
(PID.TID 0000.0001)     ;
(PID.TID 0000.0001) diffKrBL79scl = /* Depth scale for Bryan and Lewis 1979 ( m ) */
(PID.TID 0000.0001)                 2.000000000000000E+02
(PID.TID 0000.0001)     ;
(PID.TID 0000.0001) diffKrBL79Ho = /* Turning depth for Bryan and Lewis 1979 ( m ) */
(PID.TID 0000.0001)                -2.000000000000000E+03
(PID.TID 0000.0001)     ;
(PID.TID 0000.0001) ivdc_kappa = /* Implicit Vertical Diffusivity for Convection ( m^2/s) */
(PID.TID 0000.0001)                 1.000000000000000E+01
(PID.TID 0000.0001)     ;
(PID.TID 0000.0001) hMixCriteria=  /* Criteria for mixed-layer diagnostic */
(PID.TID 0000.0001)                -8.000000000000000E-01
(PID.TID 0000.0001)     ;
(PID.TID 0000.0001) dRhoSmall =  /* Parameter for mixed-layer diagnostic */
(PID.TID 0000.0001)                 1.000000000000000E-06
(PID.TID 0000.0001)     ;
(PID.TID 0000.0001) hMixSmooth=  /* Smoothing parameter for mixed-layer diagnostic */
(PID.TID 0000.0001)                 0.000000000000000E+00
(PID.TID 0000.0001)     ;
(PID.TID 0000.0001) eosType =  /* Type of Equation of State */
(PID.TID 0000.0001)               'JMD95Z'
(PID.TID 0000.0001)     ;
(PID.TID 0000.0001) selectP_inEOS_Zc = /* select pressure to use in EOS (0,1,2,3) */
(PID.TID 0000.0001)                       0
(PID.TID 0000.0001)     0= -g*rhoConst*z ; 1= pRef (from tRef,sRef); 2= Hyd P ; 3= Hyd+NH P
(PID.TID 0000.0001)     ;
(PID.TID 0000.0001) HeatCapacity_Cp =  /* Specific heat capacity ( J/kg/K ) */
(PID.TID 0000.0001)                 3.994000000000000E+03
(PID.TID 0000.0001)     ;
(PID.TID 0000.0001) celsius2K = /* 0 degree Celsius converted to Kelvin ( K ) */
(PID.TID 0000.0001)                 2.731500000000000E+02
(PID.TID 0000.0001)     ;
(PID.TID 0000.0001) rhoConst  = /* Reference density (Boussinesq)  ( kg/m^3 ) */
(PID.TID 0000.0001)                 1.035000000000000E+03
(PID.TID 0000.0001)     ;
(PID.TID 0000.0001) rhoFacC = /* normalized Reference density @ cell-Center (-) */
(PID.TID 0000.0001)    15 @  1.000000000000000E+00              /* K =  1: 15 */
(PID.TID 0000.0001)     ;
(PID.TID 0000.0001) rhoFacF = /* normalized Reference density @ W-Interface (-) */
(PID.TID 0000.0001)    16 @  1.000000000000000E+00              /* K =  1: 16 */
(PID.TID 0000.0001)     ;
(PID.TID 0000.0001) rhoConstFresh = /* Fresh-water reference density ( kg/m^3 ) */
(PID.TID 0000.0001)                 1.000000000000000E+03
(PID.TID 0000.0001)     ;
(PID.TID 0000.0001) gravity =   /* Gravitational acceleration ( m/s^2 ) */
(PID.TID 0000.0001)                 9.810000000000000E+00
(PID.TID 0000.0001)     ;
(PID.TID 0000.0001) gBaro =   /* Barotropic gravity ( m/s^2 ) */
(PID.TID 0000.0001)                 9.810000000000000E+00
(PID.TID 0000.0001)     ;
(PID.TID 0000.0001) gravFacC = /* gravity factor (vs surf.) @ cell-Center (-) */
(PID.TID 0000.0001)    15 @  1.000000000000000E+00              /* K =  1: 15 */
(PID.TID 0000.0001)     ;
(PID.TID 0000.0001) gravFacF = /* gravity factor (vs surf.) @ W-Interface (-) */
(PID.TID 0000.0001)    16 @  1.000000000000000E+00              /* K =  1: 16 */
(PID.TID 0000.0001)     ;
(PID.TID 0000.0001) rotationPeriod =   /* Rotation Period ( s ) */
(PID.TID 0000.0001)                 8.616400000000000E+04
(PID.TID 0000.0001)     ;
(PID.TID 0000.0001) omega =   /* Angular velocity ( rad/s ) */
(PID.TID 0000.0001)                 7.292123516990375E-05
(PID.TID 0000.0001)     ;
(PID.TID 0000.0001) f0 =   /* Reference coriolis parameter ( 1/s ) */
(PID.TID 0000.0001)                 1.000000000000000E-04
(PID.TID 0000.0001)     ;
(PID.TID 0000.0001) beta =   /* Beta ( 1/(m.s) ) */
(PID.TID 0000.0001)                 9.999999999999999E-12
(PID.TID 0000.0001)     ;
(PID.TID 0000.0001) fPrime =   /* Second coriolis parameter ( 1/s ) */
(PID.TID 0000.0001)                 0.000000000000000E+00
(PID.TID 0000.0001)     ;
(PID.TID 0000.0001) rigidLid =   /* Rigid lid on/off flag */
(PID.TID 0000.0001)                   F
(PID.TID 0000.0001)     ;
(PID.TID 0000.0001) implicitFreeSurface =   /* Implicit free surface on/off flag */
(PID.TID 0000.0001)                   T
(PID.TID 0000.0001)     ;
(PID.TID 0000.0001) freeSurfFac =   /* Implicit free surface factor */
(PID.TID 0000.0001)                 1.000000000000000E+00
(PID.TID 0000.0001)     ;
(PID.TID 0000.0001) implicSurfPress =  /* Surface Pressure implicit factor (0-1)*/
(PID.TID 0000.0001)                 1.000000000000000E+00
(PID.TID 0000.0001)     ;
(PID.TID 0000.0001) implicDiv2DFlow =  /* Barot. Flow Div. implicit factor (0-1)*/
(PID.TID 0000.0001)                 1.000000000000000E+00
(PID.TID 0000.0001)     ;
(PID.TID 0000.0001) uniformLin_PhiSurf = /* use uniform Bo_surf on/off flag*/
(PID.TID 0000.0001)                   T
(PID.TID 0000.0001)     ;
(PID.TID 0000.0001) uniformFreeSurfLev = /* free-surface level-index is uniform */
(PID.TID 0000.0001)                   T
(PID.TID 0000.0001)     ;
(PID.TID 0000.0001) hFacMin =   /* minimum partial cell factor (hFac) */
(PID.TID 0000.0001)                 1.000000000000000E-01
(PID.TID 0000.0001)     ;
(PID.TID 0000.0001) hFacMinDr = /* minimum partial cell thickness ( m) */
(PID.TID 0000.0001)                 2.000000000000000E+01
(PID.TID 0000.0001)     ;
(PID.TID 0000.0001) exactConserv =  /* Exact Volume Conservation on/off flag*/
(PID.TID 0000.0001)                   T
(PID.TID 0000.0001)     ;
(PID.TID 0000.0001) linFSConserveTr = /* Tracer correction for Lin Free Surface on/off flag*/
(PID.TID 0000.0001)                   F
(PID.TID 0000.0001)     ;
(PID.TID 0000.0001) nonlinFreeSurf = /* Non-linear Free Surf. options (-1,0,1,2,3)*/
(PID.TID 0000.0001)                       4
(PID.TID 0000.0001)      -1,0= Off ; 1,2,3= On, 2=+rescale gU,gV, 3=+update cg2d solv.
(PID.TID 0000.0001)     ;
(PID.TID 0000.0001) hFacInf =   /* lower threshold for hFac (nonlinFreeSurf only)*/
(PID.TID 0000.0001)                 2.000000000000000E-01
(PID.TID 0000.0001)     ;
(PID.TID 0000.0001) hFacSup =   /* upper threshold for hFac (nonlinFreeSurf only)*/
(PID.TID 0000.0001)                 2.000000000000000E+00
(PID.TID 0000.0001)     ;
(PID.TID 0000.0001) select_rStar = /* r* Vertical coord. options (=0 r coord.; >0 uses r*)*/
(PID.TID 0000.0001)                       2
(PID.TID 0000.0001)     ;
(PID.TID 0000.0001) useRealFreshWaterFlux = /* Real Fresh Water Flux on/off flag*/
(PID.TID 0000.0001)                   T
(PID.TID 0000.0001)     ;
(PID.TID 0000.0001) temp_EvPrRn = /* Temp. of Evap/Prec/R (UNSET=use local T)(oC)*/
(PID.TID 0000.0001)                 1.234567000000000E+05
(PID.TID 0000.0001)     ;
(PID.TID 0000.0001) salt_EvPrRn = /* Salin. of Evap/Prec/R (UNSET=use local S)(psu)*/
(PID.TID 0000.0001)                 0.000000000000000E+00
(PID.TID 0000.0001)     ;
(PID.TID 0000.0001) selectAddFluid = /* option for mass source/sink of fluid (=0: off) */
(PID.TID 0000.0001)                       0
(PID.TID 0000.0001)     ;
(PID.TID 0000.0001) temp_addMass = /* Temp. of addMass array (UNSET=use local T)(oC)*/
(PID.TID 0000.0001)                 1.234567000000000E+05
(PID.TID 0000.0001)     ;
(PID.TID 0000.0001) salt_addMass = /* Salin. of addMass array (UNSET=use local S)(psu)*/
(PID.TID 0000.0001)                 0.000000000000000E+00
(PID.TID 0000.0001)     ;
(PID.TID 0000.0001) use3Dsolver = /* use 3-D pressure solver on/off flag */
(PID.TID 0000.0001)                   F
(PID.TID 0000.0001)     ;
(PID.TID 0000.0001) nonHydrostatic =  /* Non-Hydrostatic on/off flag */
(PID.TID 0000.0001)                   F
(PID.TID 0000.0001)     ;
(PID.TID 0000.0001) nh_Am2 = /* Non-Hydrostatic terms scaling factor */
(PID.TID 0000.0001)                 1.000000000000000E+00
(PID.TID 0000.0001)     ;
(PID.TID 0000.0001) implicitNHPress = /* Non-Hyd Pressure implicit factor (0-1)*/
(PID.TID 0000.0001)                 1.000000000000000E+00
(PID.TID 0000.0001)     ;
(PID.TID 0000.0001) selectNHfreeSurf = /* Non-Hyd (free-)Surface option */
(PID.TID 0000.0001)                       0
(PID.TID 0000.0001)     ;
(PID.TID 0000.0001) quasiHydrostatic = /* Quasi-Hydrostatic on/off flag */
(PID.TID 0000.0001)                   F
(PID.TID 0000.0001)     ;
(PID.TID 0000.0001) calc_wVelocity = /* vertical velocity calculation on/off flag */
(PID.TID 0000.0001)                   T
(PID.TID 0000.0001)     ;
(PID.TID 0000.0001) momStepping =  /* Momentum equation on/off flag */
(PID.TID 0000.0001)                   T
(PID.TID 0000.0001)     ;
(PID.TID 0000.0001) vectorInvariantMomentum= /* Vector-Invariant Momentum on/off */
(PID.TID 0000.0001)                   T
(PID.TID 0000.0001)     ;
(PID.TID 0000.0001) momAdvection =  /* Momentum advection on/off flag */
(PID.TID 0000.0001)                   T
(PID.TID 0000.0001)     ;
(PID.TID 0000.0001) momViscosity =  /* Momentum viscosity on/off flag */
(PID.TID 0000.0001)                   T
(PID.TID 0000.0001)     ;
(PID.TID 0000.0001) momImplVertAdv= /* Momentum implicit vert. advection on/off*/
(PID.TID 0000.0001)                   F
(PID.TID 0000.0001)     ;
(PID.TID 0000.0001) implicitViscosity = /* Implicit viscosity on/off flag */
(PID.TID 0000.0001)                   F
(PID.TID 0000.0001)     ;
(PID.TID 0000.0001) selectImplicitDrag= /* Implicit bot Drag options (0,1,2)*/
(PID.TID 0000.0001)                       0
(PID.TID 0000.0001)     0= Expl. ; 1= Impl. on provis. Vel ; 2= Fully Impl (with surf.P)
(PID.TID 0000.0001)     ;
(PID.TID 0000.0001) metricTerms =  /* metric-Terms on/off flag */
(PID.TID 0000.0001)                   F
(PID.TID 0000.0001)     ;
(PID.TID 0000.0001) useNHMTerms = /* Non-Hydrostatic Metric-Terms on/off */
(PID.TID 0000.0001)                   F
(PID.TID 0000.0001)     ;
(PID.TID 0000.0001) selectCoriMap = /* Coriolis Map options (0,1,2,3)*/
(PID.TID 0000.0001)                       2
(PID.TID 0000.0001)     0= f-Plane ; 1= Beta-Plane ; 2= Spherical ; 3= read from file
(PID.TID 0000.0001)     ;
(PID.TID 0000.0001) use3dCoriolis = /* 3-D Coriolis on/off flag */
(PID.TID 0000.0001)                   F
(PID.TID 0000.0001)     ;
(PID.TID 0000.0001) useCoriolis =  /* Coriolis on/off flag */
(PID.TID 0000.0001)                   T
(PID.TID 0000.0001)     ;
(PID.TID 0000.0001) useCDscheme =  /* CD scheme on/off flag */
(PID.TID 0000.0001)                   F
(PID.TID 0000.0001)     ;
(PID.TID 0000.0001) useEnergyConservingCoriolis= /* Flx-Form Coriolis scheme flag */
(PID.TID 0000.0001)                   F
(PID.TID 0000.0001)     ;
(PID.TID 0000.0001) useJamartWetPoints= /* Coriolis WetPoints method flag */
(PID.TID 0000.0001)                   F
(PID.TID 0000.0001)     ;
(PID.TID 0000.0001) useJamartMomAdv= /* V.I Non-linear terms Jamart flag */
(PID.TID 0000.0001)                   F
(PID.TID 0000.0001)     ;
(PID.TID 0000.0001) useAbsVorticity= /* V.I Works with f+zeta in Coriolis */
(PID.TID 0000.0001)                   F
(PID.TID 0000.0001)     ;
(PID.TID 0000.0001) selectVortScheme= /* V.I Scheme selector for Vorticity-Term */
(PID.TID 0000.0001)                       1
(PID.TID 0000.0001)    = 0 : enstrophy (Shallow-Water Eq.) conserving scheme by Sadourny, JAS 75
(PID.TID 0000.0001)    = 1 : same as 0 with modified hFac
(PID.TID 0000.0001)    = 2 : energy conserving scheme (used by Sadourny in JAS 75 paper)
(PID.TID 0000.0001)    = 3 : energy (general) and enstrophy (2D, nonDiv.) conserving scheme
(PID.TID 0000.0001)          from Sadourny (Burridge & Haseler, ECMWF Rep.4, 1977)
(PID.TID 0000.0001)     ;
(PID.TID 0000.0001) upwindVorticity= /* V.I Upwind bias vorticity flag */
(PID.TID 0000.0001)                   F
(PID.TID 0000.0001)     ;
(PID.TID 0000.0001) highOrderVorticity= /* V.I High order vort. advect. flag */
(PID.TID 0000.0001)                   F
(PID.TID 0000.0001)     ;
(PID.TID 0000.0001) upwindShear= /* V.I Upwind vertical Shear advection flag */
(PID.TID 0000.0001)                   F
(PID.TID 0000.0001)     ;
(PID.TID 0000.0001) selectKEscheme= /* V.I Kinetic Energy scheme selector */
(PID.TID 0000.0001)                       0
(PID.TID 0000.0001)     ;
(PID.TID 0000.0001) momForcing =  /* Momentum forcing on/off flag */
(PID.TID 0000.0001)                   T
(PID.TID 0000.0001)     ;
(PID.TID 0000.0001) momTidalForcing = /* Momentum Tidal forcing on/off flag */
(PID.TID 0000.0001)                   T
(PID.TID 0000.0001)     ;
(PID.TID 0000.0001) momPressureForcing =  /* Momentum pressure term on/off flag */
(PID.TID 0000.0001)                   T
(PID.TID 0000.0001)     ;
(PID.TID 0000.0001) implicitIntGravWave= /* Implicit Internal Gravity Wave flag */
(PID.TID 0000.0001)                   F
(PID.TID 0000.0001)     ;
(PID.TID 0000.0001) staggerTimeStep =    /* Stagger time stepping on/off flag */
(PID.TID 0000.0001)                   T
(PID.TID 0000.0001)     ;
(PID.TID 0000.0001) doResetHFactors = /* reset thickness factors @ each time-step */
(PID.TID 0000.0001)                   F
(PID.TID 0000.0001)     ;
(PID.TID 0000.0001) multiDimAdvection =  /* enable/disable Multi-Dim Advection */
(PID.TID 0000.0001)                   T
(PID.TID 0000.0001)     ;
(PID.TID 0000.0001) useMultiDimAdvec =   /* Multi-Dim Advection is/is-not used */
(PID.TID 0000.0001)                   F
(PID.TID 0000.0001)     ;
(PID.TID 0000.0001) implicitDiffusion = /* Implicit Diffusion on/off flag */
(PID.TID 0000.0001)                   T
(PID.TID 0000.0001)     ;
(PID.TID 0000.0001) tempStepping =  /* Temperature equation on/off flag */
(PID.TID 0000.0001)                   T
(PID.TID 0000.0001)     ;
(PID.TID 0000.0001) tempAdvection = /* Temperature advection on/off flag */
(PID.TID 0000.0001)                   T
(PID.TID 0000.0001)     ;
(PID.TID 0000.0001) tempImplVertAdv = /* Temp. implicit vert. advection on/off */
(PID.TID 0000.0001)                   F
(PID.TID 0000.0001)     ;
(PID.TID 0000.0001) tempForcing  =  /* Temperature forcing on/off flag */
(PID.TID 0000.0001)                   T
(PID.TID 0000.0001)     ;
(PID.TID 0000.0001) balanceQnet  =  /* balance net heat-flux on/off flag */
(PID.TID 0000.0001)                   F
(PID.TID 0000.0001)     ;
(PID.TID 0000.0001) doThetaClimRelax = /* apply SST relaxation on/off flag */
(PID.TID 0000.0001)                   F
(PID.TID 0000.0001)     ;
(PID.TID 0000.0001) balanceThetaClimRelax= /* balance SST relaxation on/off flag */
(PID.TID 0000.0001)                   F
(PID.TID 0000.0001)     ;
(PID.TID 0000.0001) tempIsActiveTr = /* Temp. is a dynamically Active Tracer */
(PID.TID 0000.0001)                   T
(PID.TID 0000.0001)     ;
(PID.TID 0000.0001) saltStepping =  /* Salinity equation on/off flag */
(PID.TID 0000.0001)                   T
(PID.TID 0000.0001)     ;
(PID.TID 0000.0001) saltAdvection = /* Salinity advection on/off flag */
(PID.TID 0000.0001)                   T
(PID.TID 0000.0001)     ;
(PID.TID 0000.0001) saltImplVertAdv = /* Sali. implicit vert. advection on/off */
(PID.TID 0000.0001)                   F
(PID.TID 0000.0001)     ;
(PID.TID 0000.0001) saltForcing  =  /* Salinity forcing on/off flag */
(PID.TID 0000.0001)                   T
(PID.TID 0000.0001)     ;
(PID.TID 0000.0001) balanceEmPmR =  /* balance net fresh-water flux on/off flag */
(PID.TID 0000.0001)                   F
(PID.TID 0000.0001)     ;
(PID.TID 0000.0001) doSaltClimRelax = /* apply SSS relaxation on/off flag */
(PID.TID 0000.0001)                   F
(PID.TID 0000.0001)     ;
(PID.TID 0000.0001) balanceSaltClimRelax= /* balance SSS relaxation on/off flag */
(PID.TID 0000.0001)                   F
(PID.TID 0000.0001)     ;
(PID.TID 0000.0001) saltIsActiveTr = /* Salt  is a dynamically Active Tracer */
(PID.TID 0000.0001)                   T
(PID.TID 0000.0001)     ;
(PID.TID 0000.0001)  readBinaryPrec = /* Precision used for reading binary files */
(PID.TID 0000.0001)                      64
(PID.TID 0000.0001)     ;
(PID.TID 0000.0001) writeBinaryPrec = /* Precision used for writing binary files */
(PID.TID 0000.0001)                      32
(PID.TID 0000.0001)     ;
(PID.TID 0000.0001)  rwSuffixType =   /* select format of mds file suffix */
(PID.TID 0000.0001)                       0
(PID.TID 0000.0001)    = 0 : myIter (I10.10) ;   = 1 : 100*myTime (100th sec) ;
(PID.TID 0000.0001)    = 2 : myTime (seconds);   = 3 : myTime/360 (10th of hr);
(PID.TID 0000.0001)    = 4 : myTime/3600 (hours)
(PID.TID 0000.0001)     ;
(PID.TID 0000.0001)  globalFiles = /* write "global" (=not per tile) files */
(PID.TID 0000.0001)                   F
(PID.TID 0000.0001)     ;
(PID.TID 0000.0001)  useSingleCpuIO = /* only master MPI process does I/O */
(PID.TID 0000.0001)                   T
(PID.TID 0000.0001)     ;
(PID.TID 0000.0001)  useSingleCpuInput = /* only master process reads input */
(PID.TID 0000.0001)                   T
(PID.TID 0000.0001)     ;
(PID.TID 0000.0001) /* debLev[*]  : level of debug & auxiliary message printing */
(PID.TID 0000.0001) debLevZero =  0 ; /* level of disabled aux. msg printing */
(PID.TID 0000.0001)    debLevA =  1 ; /* level of minimum  aux. msg printing */
(PID.TID 0000.0001)    debLevB =  2 ; /* level of low aux. print (report read-file opening)*/
(PID.TID 0000.0001)    debLevC =  3 ; /* level of moderate debug prt (most pkgs debug msg) */
(PID.TID 0000.0001)    debLevD =  4 ; /* level of enhanced debug prt (add DEBUG_STATS prt) */
(PID.TID 0000.0001)    debLevE =  5 ; /* level of extensive debug printing */
(PID.TID 0000.0001) debugLevel =  /* select debug printing level */
(PID.TID 0000.0001)                       2
(PID.TID 0000.0001)     ;
(PID.TID 0000.0001)  plotLevel =  /* select PLOT_FIELD printing level */
(PID.TID 0000.0001)                       2
(PID.TID 0000.0001)     ;
(PID.TID 0000.0001) //
(PID.TID 0000.0001) // Elliptic solver(s) paramters ( PARM02 in namelist )
(PID.TID 0000.0001) //
(PID.TID 0000.0001) cg2dMaxIters =   /* Upper limit on 2d con. grad iterations  */
(PID.TID 0000.0001)                     150
(PID.TID 0000.0001)     ;
(PID.TID 0000.0001) cg2dChkResFreq =   /* 2d con. grad convergence test frequency */
(PID.TID 0000.0001)                       1
(PID.TID 0000.0001)     ;
(PID.TID 0000.0001) cg2dUseMinResSol= /* use cg2d last-iter(=0) / min-resid.(=1) solution */
(PID.TID 0000.0001)                       0
(PID.TID 0000.0001)     ;
(PID.TID 0000.0001) cg2dTargetResidual =   /* 2d con. grad target residual  */
(PID.TID 0000.0001)                 1.000000000000000E-07
(PID.TID 0000.0001)     ;
(PID.TID 0000.0001) cg2dTargetResWunit =   /* CG2d target residual [W units] */
(PID.TID 0000.0001)                -1.000000000000000E+00
(PID.TID 0000.0001)     ;
(PID.TID 0000.0001) cg2dPreCondFreq =   /* Freq. for updating cg2d preconditioner */
(PID.TID 0000.0001)                       1
(PID.TID 0000.0001)     ;
(PID.TID 0000.0001) useSRCGSolver =  /* use single reduction CG solver(s) */
(PID.TID 0000.0001)                   F
(PID.TID 0000.0001)     ;
(PID.TID 0000.0001) printResidualFreq = /* Freq. for printing CG residual */
(PID.TID 0000.0001)                       0
(PID.TID 0000.0001)     ;
(PID.TID 0000.0001) //
(PID.TID 0000.0001) // Time stepping paramters ( PARM03 in namelist )
(PID.TID 0000.0001) //
(PID.TID 0000.0001) deltaTMom =   /* Momentum equation timestep ( s ) */
(PID.TID 0000.0001)                 9.000000000000000E+02
(PID.TID 0000.0001)     ;
(PID.TID 0000.0001) deltaTFreeSurf = /* FreeSurface equation timestep ( s ) */
(PID.TID 0000.0001)                 9.000000000000000E+02
(PID.TID 0000.0001)     ;
(PID.TID 0000.0001) dTtracerLev =  /* Tracer equation timestep ( s ) */
(PID.TID 0000.0001)    15 @  9.000000000000000E+02              /* K =  1: 15 */
(PID.TID 0000.0001)     ;
(PID.TID 0000.0001) deltaTClock  =   /* Model clock timestep ( s ) */
(PID.TID 0000.0001)                 9.000000000000000E+02
(PID.TID 0000.0001)     ;
(PID.TID 0000.0001) cAdjFreq =   /* Convective adjustment interval ( s ) */
(PID.TID 0000.0001)                 0.000000000000000E+00
(PID.TID 0000.0001)     ;
(PID.TID 0000.0001) momForcingOutAB = /* =1: take Momentum Forcing out of Adams-Bash. stepping */
(PID.TID 0000.0001)                       0
(PID.TID 0000.0001)     ;
(PID.TID 0000.0001) tracForcingOutAB = /* =1: take T,S,pTr Forcing out of Adams-Bash. stepping */
(PID.TID 0000.0001)                       1
(PID.TID 0000.0001)     ;
(PID.TID 0000.0001) momDissip_In_AB = /* put Dissipation Tendency in Adams-Bash. stepping */
(PID.TID 0000.0001)                   T
(PID.TID 0000.0001)     ;
(PID.TID 0000.0001) doAB_onGtGs = /* apply AB on Tendencies (rather than on T,S)*/
(PID.TID 0000.0001)                   T
(PID.TID 0000.0001)     ;
(PID.TID 0000.0001) abEps =   /* Adams-Bashforth-2 stabilizing weight */
(PID.TID 0000.0001)                 1.000000000000000E-01
(PID.TID 0000.0001)     ;
(PID.TID 0000.0001) applyExchUV_early = /* Apply EXCH to U,V earlier in time-step */
(PID.TID 0000.0001)                   F
(PID.TID 0000.0001)     ;
(PID.TID 0000.0001) pickupStrictlyMatch= /* stop if pickup do not strictly match */
(PID.TID 0000.0001)                   F
(PID.TID 0000.0001)     ;
(PID.TID 0000.0001) nIter0   =   /* Run starting timestep number */
(PID.TID 0000.0001)                   72000
(PID.TID 0000.0001)     ;
(PID.TID 0000.0001) nTimeSteps = /* Number of timesteps */
(PID.TID 0000.0001)                      96
(PID.TID 0000.0001)     ;
(PID.TID 0000.0001) nEndIter =   /* Run ending timestep number */
(PID.TID 0000.0001)                   72096
(PID.TID 0000.0001)     ;
(PID.TID 0000.0001) baseTime =   /* Model base time ( s ) */
(PID.TID 0000.0001)                 0.000000000000000E+00
(PID.TID 0000.0001)     ;
(PID.TID 0000.0001) startTime =  /* Run start time ( s ) */
(PID.TID 0000.0001)                 6.480000000000000E+07
(PID.TID 0000.0001)     ;
(PID.TID 0000.0001) endTime  =   /* Integration ending time ( s ) */
(PID.TID 0000.0001)                 6.488640000000000E+07
(PID.TID 0000.0001)     ;
(PID.TID 0000.0001) pChkPtFreq = /* Permanent restart/pickup file interval ( s ) */
(PID.TID 0000.0001)                 0.000000000000000E+00
(PID.TID 0000.0001)     ;
(PID.TID 0000.0001) chkPtFreq  = /* Rolling restart/pickup file interval ( s ) */
(PID.TID 0000.0001)                 0.000000000000000E+00
(PID.TID 0000.0001)     ;
(PID.TID 0000.0001) pickup_write_mdsio =   /* Model IO flag. */
(PID.TID 0000.0001)                   T
(PID.TID 0000.0001)     ;
(PID.TID 0000.0001) pickup_read_mdsio =   /* Model IO flag. */
(PID.TID 0000.0001)                   T
(PID.TID 0000.0001)     ;
(PID.TID 0000.0001) writePickupAtEnd =   /* Model IO flag. */
(PID.TID 0000.0001)                   T
(PID.TID 0000.0001)     ;
(PID.TID 0000.0001) dumpFreq =   /* Model state write out interval ( s ). */
(PID.TID 0000.0001)                 0.000000000000000E+00
(PID.TID 0000.0001)     ;
(PID.TID 0000.0001) dumpInitAndLast= /* write out Initial & Last iter. model state */
(PID.TID 0000.0001)                   T
(PID.TID 0000.0001)     ;
(PID.TID 0000.0001) snapshot_mdsio =   /* Model IO flag. */
(PID.TID 0000.0001)                   T
(PID.TID 0000.0001)     ;
(PID.TID 0000.0001) monitorFreq =   /* Monitor output interval ( s ). */
(PID.TID 0000.0001)                 1.000000000000000E+00
(PID.TID 0000.0001)     ;
(PID.TID 0000.0001) monitorSelect = /* select group of variables to monitor */
(PID.TID 0000.0001)                       3
(PID.TID 0000.0001)     ;
(PID.TID 0000.0001) monitor_stdio =   /* Model IO flag. */
(PID.TID 0000.0001)                   T
(PID.TID 0000.0001)     ;
(PID.TID 0000.0001) externForcingPeriod =   /* forcing period (s) */
(PID.TID 0000.0001)                 0.000000000000000E+00
(PID.TID 0000.0001)     ;
(PID.TID 0000.0001) externForcingCycle =   /* period of the cyle (s). */
(PID.TID 0000.0001)                 0.000000000000000E+00
(PID.TID 0000.0001)     ;
(PID.TID 0000.0001) tauThetaClimRelax =   /* relaxation time scale (s) */
(PID.TID 0000.0001)                 0.000000000000000E+00
(PID.TID 0000.0001)     ;
(PID.TID 0000.0001) tauSaltClimRelax =   /* relaxation time scale (s) */
(PID.TID 0000.0001)                 0.000000000000000E+00
(PID.TID 0000.0001)     ;
(PID.TID 0000.0001) latBandClimRelax =   /* max. Lat. where relaxation */
(PID.TID 0000.0001)                 1.800000000000000E+02
(PID.TID 0000.0001)     ;
(PID.TID 0000.0001) //
(PID.TID 0000.0001) // Gridding paramters ( PARM04 in namelist )
(PID.TID 0000.0001) //
(PID.TID 0000.0001) usingCartesianGrid = /* Cartesian coordinates flag ( True/False ) */
(PID.TID 0000.0001)                   F
(PID.TID 0000.0001)     ;
(PID.TID 0000.0001) usingCylindricalGrid = /* Cylindrical coordinates flag ( True/False ) */
(PID.TID 0000.0001)                   F
(PID.TID 0000.0001)     ;
(PID.TID 0000.0001) usingSphericalPolarGrid = /* Spherical coordinates flag ( True/False ) */
(PID.TID 0000.0001)                   F
(PID.TID 0000.0001)     ;
(PID.TID 0000.0001) usingCurvilinearGrid = /* Curvilinear coordinates flag ( True/False ) */
(PID.TID 0000.0001)                   T
(PID.TID 0000.0001)     ;
(PID.TID 0000.0001) useMin4hFacEdges = /* set hFacW,S as minimum of adjacent hFacC factor */
(PID.TID 0000.0001)                   F
(PID.TID 0000.0001)     ;
(PID.TID 0000.0001) interViscAr_pCell = /* account for partial-cell in interior vert. viscosity */
(PID.TID 0000.0001)                   F
(PID.TID 0000.0001)     ;
(PID.TID 0000.0001) interDiffKr_pCell = /* account for partial-cell in interior vert. diffusion */
(PID.TID 0000.0001)                   F
(PID.TID 0000.0001)     ;
(PID.TID 0000.0001) pCellMix_select = /* option to enhance mixing near surface & bottom */
(PID.TID 0000.0001)                       0
(PID.TID 0000.0001)     ;
(PID.TID 0000.0001) selectSigmaCoord = /* Hybrid-Sigma Vert. Coordinate option */
(PID.TID 0000.0001)                       0
(PID.TID 0000.0001)     ;
(PID.TID 0000.0001) rSigmaBnd = /* r/sigma transition ( units of r ==  m ) */
(PID.TID 0000.0001)                 1.234567000000000E+05
(PID.TID 0000.0001)     ;
(PID.TID 0000.0001) rkSign =   /* index orientation relative to vertical coordinate */
(PID.TID 0000.0001)                -1.000000000000000E+00
(PID.TID 0000.0001)     ;
(PID.TID 0000.0001) gravitySign = /* gravity orientation relative to vertical coordinate */
(PID.TID 0000.0001)                -1.000000000000000E+00
(PID.TID 0000.0001)     ;
(PID.TID 0000.0001) seaLev_Z =  /* reference height of sea-level [m] */
(PID.TID 0000.0001)                 0.000000000000000E+00
(PID.TID 0000.0001)     ;
(PID.TID 0000.0001) top_Pres =  /* reference pressure at the top [Pa] */
(PID.TID 0000.0001)                 0.000000000000000E+00
(PID.TID 0000.0001)     ;
(PID.TID 0000.0001) mass2rUnit = /* convert mass per unit area [kg/m2] to r-units [m] */
(PID.TID 0000.0001)                 9.661835748792270E-04
(PID.TID 0000.0001)     ;
(PID.TID 0000.0001) rUnit2mass = /* convert r-units [m] to mass per unit area [kg/m2] */
(PID.TID 0000.0001)                 1.035000000000000E+03
(PID.TID 0000.0001)     ;
(PID.TID 0000.0001) drC =   /* C spacing ( units of r ) */
(PID.TID 0000.0001)                 2.500000000000000E+01,      /* K =  1 */
(PID.TID 0000.0001)                 6.000000000000000E+01,      /* K =  2 */
(PID.TID 0000.0001)                 8.500000000000000E+01,      /* K =  3 */
(PID.TID 0000.0001)                 1.200000000000000E+02,      /* K =  4 */
(PID.TID 0000.0001)                 1.650000000000000E+02,      /* K =  5 */
(PID.TID 0000.0001)                 2.150000000000000E+02,      /* K =  6 */
(PID.TID 0000.0001)                 2.650000000000000E+02,      /* K =  7 */
(PID.TID 0000.0001)                 3.150000000000000E+02,      /* K =  8 */
(PID.TID 0000.0001)                 3.650000000000000E+02,      /* K =  9 */
(PID.TID 0000.0001)                 4.150000000000000E+02,      /* K = 10 */
(PID.TID 0000.0001)                 4.650000000000000E+02,      /* K = 11 */
(PID.TID 0000.0001)                 5.150000000000000E+02,      /* K = 12 */
(PID.TID 0000.0001)                 5.650000000000000E+02,      /* K = 13 */
(PID.TID 0000.0001)                 6.150000000000000E+02,      /* K = 14 */
(PID.TID 0000.0001)                 6.650000000000000E+02,      /* K = 15 */
(PID.TID 0000.0001)                 3.450000000000000E+02       /* K = 16 */
(PID.TID 0000.0001)     ;
(PID.TID 0000.0001) drF =   /* W spacing ( units of r ) */
(PID.TID 0000.0001)                 5.000000000000000E+01,      /* K =  1 */
(PID.TID 0000.0001)                 7.000000000000000E+01,      /* K =  2 */
(PID.TID 0000.0001)                 1.000000000000000E+02,      /* K =  3 */
(PID.TID 0000.0001)                 1.400000000000000E+02,      /* K =  4 */
(PID.TID 0000.0001)                 1.900000000000000E+02,      /* K =  5 */
(PID.TID 0000.0001)                 2.400000000000000E+02,      /* K =  6 */
(PID.TID 0000.0001)                 2.900000000000000E+02,      /* K =  7 */
(PID.TID 0000.0001)                 3.400000000000000E+02,      /* K =  8 */
(PID.TID 0000.0001)                 3.900000000000000E+02,      /* K =  9 */
(PID.TID 0000.0001)                 4.400000000000000E+02,      /* K = 10 */
(PID.TID 0000.0001)                 4.900000000000000E+02,      /* K = 11 */
(PID.TID 0000.0001)                 5.400000000000000E+02,      /* K = 12 */
(PID.TID 0000.0001)                 5.900000000000000E+02,      /* K = 13 */
(PID.TID 0000.0001)                 6.400000000000000E+02,      /* K = 14 */
(PID.TID 0000.0001)                 6.900000000000000E+02       /* K = 15 */
(PID.TID 0000.0001)     ;
(PID.TID 0000.0001) radius_fromHorizGrid = /* sphere Radius of input horiz. grid */
(PID.TID 0000.0001)                 6.370000000000000E+06
(PID.TID 0000.0001)     ;
(PID.TID 0000.0001) rSphere =  /* Radius ( ignored - cartesian, m - spherical ) */
(PID.TID 0000.0001)                 6.370000000000000E+06
(PID.TID 0000.0001)     ;
(PID.TID 0000.0001) deepAtmosphere = /* Deep/Shallow Atmosphere flag (True/False) */
(PID.TID 0000.0001)                   F
(PID.TID 0000.0001)     ;
(PID.TID 0000.0001) xC =  /* xC(:,1,:,1) : P-point X coord ( deg. or m if cartesian) */
(PID.TID 0000.0001)                -4.439521994760536E+01,      /* I =  1 */
(PID.TID 0000.0001)                -4.295641272275883E+01,      /* I =  2 */
(PID.TID 0000.0001)                -4.122055553388957E+01,      /* I =  3 */
(PID.TID 0000.0001)                -3.923446288487304E+01,      /* I =  4 */
(PID.TID 0000.0001)                -3.702585158682200E+01,      /* I =  5 */
(PID.TID 0000.0001)                -3.461179367094151E+01,      /* I =  6 */
(PID.TID 0000.0001)                -3.200434569041793E+01,      /* I =  7 */
(PID.TID 0000.0001)                -2.921355965632675E+01,      /* I =  8 */
(PID.TID 0000.0001)                -2.624932223028290E+01,      /* I =  9 */
(PID.TID 0000.0001)                -2.312261250426344E+01,      /* I = 10 */
(PID.TID 0000.0001)                -1.984640717127058E+01,      /* I = 11 */
(PID.TID 0000.0001)                -1.643630800555134E+01,      /* I = 12 */
(PID.TID 0000.0001)                -1.291089806302069E+01,      /* I = 13 */
(PID.TID 0000.0001)                -9.291807802719402E+00,      /* I = 14 */
(PID.TID 0000.0001)                -5.603475335822332E+00,      /* I = 15 */
(PID.TID 0000.0001)                -1.872608513033445E+00,      /* I = 16 */
(PID.TID 0000.0001)                 1.872608513033445E+00,      /* I = 17 */
(PID.TID 0000.0001)                 5.603475335822332E+00,      /* I = 18 */
(PID.TID 0000.0001)                 9.291807802719402E+00,      /* I = 19 */
(PID.TID 0000.0001)                 1.291089806302069E+01,      /* I = 20 */
(PID.TID 0000.0001)                 1.643630800555134E+01,      /* I = 21 */
(PID.TID 0000.0001)                 1.984640717127058E+01,      /* I = 22 */
(PID.TID 0000.0001)                 2.312261250426344E+01,      /* I = 23 */
(PID.TID 0000.0001)                 2.624932223028290E+01,      /* I = 24 */
(PID.TID 0000.0001)                 2.921355965632675E+01,      /* I = 25 */
(PID.TID 0000.0001)                 3.200434569041793E+01,      /* I = 26 */
(PID.TID 0000.0001)                 3.461179367094151E+01,      /* I = 27 */
(PID.TID 0000.0001)                 3.702585158682200E+01,      /* I = 28 */
(PID.TID 0000.0001)                 3.923446288487304E+01,      /* I = 29 */
(PID.TID 0000.0001)                 4.122055553388957E+01,      /* I = 30 */
(PID.TID 0000.0001)                 4.295641272275883E+01,      /* I = 31 */
(PID.TID 0000.0001)                 4.439521994760536E+01       /* I = 32 */
(PID.TID 0000.0001)     ;
(PID.TID 0000.0001) yC =  /* yC(1,:,1,:) : P-point Y coord ( deg. or m if cartesian) */
(PID.TID 0000.0001)                -3.497677942598243E+01,      /* J =  1 */
(PID.TID 0000.0001)                -3.374005967394886E+01,      /* J =  2 */
(PID.TID 0000.0001)                -3.220655175667454E+01,      /* J =  3 */
(PID.TID 0000.0001)                -3.045756348838641E+01,      /* J =  4 */
(PID.TID 0000.0001)                -2.853728129852918E+01,      /* J =  5 */
(PID.TID 0000.0001)                -2.647426640173173E+01,      /* J =  6 */
(PID.TID 0000.0001)                -2.428936657094636E+01,      /* J =  7 */
(PID.TID 0000.0001)                -2.199915808312262E+01,      /* J =  8 */
(PID.TID 0000.0001)                -1.961768597440146E+01,      /* J =  9 */
(PID.TID 0000.0001)                -1.715743888281371E+01,      /* J = 10 */
(PID.TID 0000.0001)                -1.462993396899330E+01,      /* J = 11 */
(PID.TID 0000.0001)                -1.204608340464756E+01,      /* J = 12 */
(PID.TID 0000.0001)                -9.416429130284818E+00,      /* J = 13 */
(PID.TID 0000.0001)                -6.751293662992216E+00,      /* J = 14 */
(PID.TID 0000.0001)                -4.060875511835959E+00,      /* J = 15 */
(PID.TID 0000.0001)                -1.355307764409121E+00,      /* J = 16 */
(PID.TID 0000.0001)                 1.355307764409121E+00,      /* J = 17 */
(PID.TID 0000.0001)                 4.060875511835959E+00,      /* J = 18 */
(PID.TID 0000.0001)                 6.751293662992216E+00,      /* J = 19 */
(PID.TID 0000.0001)                 9.416429130284818E+00,      /* J = 20 */
(PID.TID 0000.0001)                 1.204608340464756E+01,      /* J = 21 */
(PID.TID 0000.0001)                 1.462993396899330E+01,      /* J = 22 */
(PID.TID 0000.0001)                 1.715743888281371E+01,      /* J = 23 */
(PID.TID 0000.0001)                 1.961768597440146E+01,      /* J = 24 */
(PID.TID 0000.0001)                 2.199915808312262E+01,      /* J = 25 */
(PID.TID 0000.0001)                 2.428936657094636E+01,      /* J = 26 */
(PID.TID 0000.0001)                 2.647426640173173E+01,      /* J = 27 */
(PID.TID 0000.0001)                 2.853728129852918E+01,      /* J = 28 */
(PID.TID 0000.0001)                 3.045756348838641E+01,      /* J = 29 */
(PID.TID 0000.0001)                 3.220655175667454E+01,      /* J = 30 */
(PID.TID 0000.0001)                 3.374005967394886E+01,      /* J = 31 */
(PID.TID 0000.0001)                 3.497677942598243E+01       /* J = 32 */
(PID.TID 0000.0001)     ;
(PID.TID 0000.0001) rcoord = /* P-point R coordinate (  units of r ) */
(PID.TID 0000.0001)                -2.500000000000000E+01,      /* K =  1 */
(PID.TID 0000.0001)                -8.500000000000000E+01,      /* K =  2 */
(PID.TID 0000.0001)                -1.700000000000000E+02,      /* K =  3 */
(PID.TID 0000.0001)                -2.900000000000000E+02,      /* K =  4 */
(PID.TID 0000.0001)                -4.550000000000000E+02,      /* K =  5 */
(PID.TID 0000.0001)                -6.700000000000000E+02,      /* K =  6 */
(PID.TID 0000.0001)                -9.350000000000000E+02,      /* K =  7 */
(PID.TID 0000.0001)                -1.250000000000000E+03,      /* K =  8 */
(PID.TID 0000.0001)                -1.615000000000000E+03,      /* K =  9 */
(PID.TID 0000.0001)                -2.030000000000000E+03,      /* K = 10 */
(PID.TID 0000.0001)                -2.495000000000000E+03,      /* K = 11 */
(PID.TID 0000.0001)                -3.010000000000000E+03,      /* K = 12 */
(PID.TID 0000.0001)                -3.575000000000000E+03,      /* K = 13 */
(PID.TID 0000.0001)                -4.190000000000000E+03,      /* K = 14 */
(PID.TID 0000.0001)                -4.855000000000000E+03       /* K = 15 */
(PID.TID 0000.0001)     ;
(PID.TID 0000.0001) rF =   /* W-Interf. R coordinate (  units of r ) */
(PID.TID 0000.0001)                 0.000000000000000E+00,      /* K =  1 */
(PID.TID 0000.0001)                -5.000000000000000E+01,      /* K =  2 */
(PID.TID 0000.0001)                -1.200000000000000E+02,      /* K =  3 */
(PID.TID 0000.0001)                -2.200000000000000E+02,      /* K =  4 */
(PID.TID 0000.0001)                -3.600000000000000E+02,      /* K =  5 */
(PID.TID 0000.0001)                -5.500000000000000E+02,      /* K =  6 */
(PID.TID 0000.0001)                -7.900000000000000E+02,      /* K =  7 */
(PID.TID 0000.0001)                -1.080000000000000E+03,      /* K =  8 */
(PID.TID 0000.0001)                -1.420000000000000E+03,      /* K =  9 */
(PID.TID 0000.0001)                -1.810000000000000E+03,      /* K = 10 */
(PID.TID 0000.0001)                -2.250000000000000E+03,      /* K = 11 */
(PID.TID 0000.0001)                -2.740000000000000E+03,      /* K = 12 */
(PID.TID 0000.0001)                -3.280000000000000E+03,      /* K = 13 */
(PID.TID 0000.0001)                -3.870000000000000E+03,      /* K = 14 */
(PID.TID 0000.0001)                -4.510000000000000E+03,      /* K = 15 */
(PID.TID 0000.0001)                -5.200000000000000E+03       /* K = 16 */
(PID.TID 0000.0001)     ;
(PID.TID 0000.0001) deepFacC = /* deep-model grid factor @ cell-Center (-) */
(PID.TID 0000.0001)    15 @  1.000000000000000E+00              /* K =  1: 15 */
(PID.TID 0000.0001)     ;
(PID.TID 0000.0001) deepFacF = /* deep-model grid factor @ W-Interface (-) */
(PID.TID 0000.0001)    16 @  1.000000000000000E+00              /* K =  1: 16 */
(PID.TID 0000.0001)     ;
(PID.TID 0000.0001) rVel2wUnit = /* convert units: rVel -> wSpeed (=1 if z-coord)*/
(PID.TID 0000.0001)    16 @  1.000000000000000E+00              /* K =  1: 16 */
(PID.TID 0000.0001)     ;
(PID.TID 0000.0001) wUnit2rVel = /* convert units: wSpeed -> rVel (=1 if z-coord)*/
(PID.TID 0000.0001)    16 @  1.000000000000000E+00              /* K =  1: 16 */
(PID.TID 0000.0001)     ;
(PID.TID 0000.0001) dBdrRef = /* Vertical grad. of reference buoyancy [(m/s/r)^2] */
(PID.TID 0000.0001)    15 @  0.000000000000000E+00              /* K =  1: 15 */
(PID.TID 0000.0001)     ;
(PID.TID 0000.0001) rotateGrid = /* use rotated grid ( True/False ) */
(PID.TID 0000.0001)                   F
(PID.TID 0000.0001)     ;
(PID.TID 0000.0001) phiEuler = /* Euler angle, rotation about original z-coordinate [rad] */
(PID.TID 0000.0001)                 0.000000000000000E+00
(PID.TID 0000.0001)     ;
(PID.TID 0000.0001) thetaEuler = /* Euler angle, rotation about new x-coordinate [rad] */
(PID.TID 0000.0001)                 0.000000000000000E+00
(PID.TID 0000.0001)     ;
(PID.TID 0000.0001) psiEuler = /* Euler angle, rotation about new z-coordinate [rad] */
(PID.TID 0000.0001)                 0.000000000000000E+00
(PID.TID 0000.0001)     ;
(PID.TID 0000.0001) dxF =  /* dxF(:,1,:,1) ( units: m ) */
(PID.TID 0000.0001)                 1.202082051331828E+05,      /* I =  1 */
(PID.TID 0000.0001)                 1.563594089971120E+05,      /* I =  2 */
(PID.TID 0000.0001)                 1.835530058121492E+05,      /* I =  3 */
(PID.TID 0000.0001)                 2.045883481718707E+05,      /* I =  4 */
(PID.TID 0000.0001)                 2.218350349844185E+05,      /* I =  5 */
(PID.TID 0000.0001)                 2.364352994647058E+05,      /* I =  6 */
(PID.TID 0000.0001)                 2.490022710862746E+05,      /* I =  7 */
(PID.TID 0000.0001)                 2.598919724358304E+05,      /* I =  8 */
(PID.TID 0000.0001)                 2.693210245495156E+05,      /* I =  9 */
(PID.TID 0000.0001)                 2.774243179696503E+05,      /* I = 10 */
(PID.TID 0000.0001)                 2.842862532064524E+05,      /* I = 11 */
(PID.TID 0000.0001)                 2.899590699694043E+05,      /* I = 12 */
(PID.TID 0000.0001)                 2.944742915095688E+05,      /* I = 13 */
(PID.TID 0000.0001)                 2.978501920522794E+05,      /* I = 14 */
(PID.TID 0000.0001)                 3.000967749619962E+05,      /* I = 15 */
(PID.TID 0000.0001)     2 @  3.012190981969055E+05,             /* I = 16: 17 */
(PID.TID 0000.0001)                 3.000967749619962E+05,      /* I = 18 */
(PID.TID 0000.0001)                 2.978501920522794E+05,      /* I = 19 */
(PID.TID 0000.0001)                 2.944742915095688E+05,      /* I = 20 */
(PID.TID 0000.0001)                 2.899590699694043E+05,      /* I = 21 */
(PID.TID 0000.0001)                 2.842862532064524E+05,      /* I = 22 */
(PID.TID 0000.0001)                 2.774243179696503E+05,      /* I = 23 */
(PID.TID 0000.0001)                 2.693210245495156E+05,      /* I = 24 */
(PID.TID 0000.0001)                 2.598919724358304E+05,      /* I = 25 */
(PID.TID 0000.0001)                 2.490022710862746E+05,      /* I = 26 */
(PID.TID 0000.0001)                 2.364352994647058E+05,      /* I = 27 */
(PID.TID 0000.0001)                 2.218350349844185E+05,      /* I = 28 */
(PID.TID 0000.0001)                 2.045883481718707E+05,      /* I = 29 */
(PID.TID 0000.0001)                 1.835530058121492E+05,      /* I = 30 */
(PID.TID 0000.0001)                 1.563594089971120E+05,      /* I = 31 */
(PID.TID 0000.0001)                 1.202082051331828E+05       /* I = 32 */
(PID.TID 0000.0001)     ;
(PID.TID 0000.0001) dxF =  /* dxF(1,:,1,:) ( units: m ) */
(PID.TID 0000.0001)                 1.202082051331828E+05,      /* J =  1 */
(PID.TID 0000.0001)                 1.572908084538706E+05,      /* J =  2 */
(PID.TID 0000.0001)                 1.840412227747703E+05,      /* J =  3 */
(PID.TID 0000.0001)                 2.048868197919576E+05,      /* J =  4 */
(PID.TID 0000.0001)                 2.220405216043041E+05,      /* J =  5 */
(PID.TID 0000.0001)                 2.365892017348392E+05,      /* J =  6 */
(PID.TID 0000.0001)                 2.491250781852558E+05,      /* J =  7 */
(PID.TID 0000.0001)                 2.599949918261881E+05,      /* J =  8 */
(PID.TID 0000.0001)                 2.694110134598581E+05,      /* J =  9 */
(PID.TID 0000.0001)                 2.775055554645015E+05,      /* J = 10 */
(PID.TID 0000.0001)                 2.843615645344775E+05,      /* J = 11 */
(PID.TID 0000.0001)                 2.900303768613599E+05,      /* J = 12 */
(PID.TID 0000.0001)                 2.945429307892709E+05,      /* J = 13 */
(PID.TID 0000.0001)                 2.979171143158405E+05,      /* J = 14 */
(PID.TID 0000.0001)                 3.001626787528886E+05,      /* J = 15 */
(PID.TID 0000.0001)     2 @  3.012844832048790E+05,             /* J = 16: 17 */
(PID.TID 0000.0001)                 3.001626787528886E+05,      /* J = 18 */
(PID.TID 0000.0001)                 2.979171143158405E+05,      /* J = 19 */
(PID.TID 0000.0001)                 2.945429307892709E+05,      /* J = 20 */
(PID.TID 0000.0001)                 2.900303768613599E+05,      /* J = 21 */
(PID.TID 0000.0001)                 2.843615645344775E+05,      /* J = 22 */
(PID.TID 0000.0001)                 2.775055554645015E+05,      /* J = 23 */
(PID.TID 0000.0001)                 2.694110134598581E+05,      /* J = 24 */
(PID.TID 0000.0001)                 2.599949918261881E+05,      /* J = 25 */
(PID.TID 0000.0001)                 2.491250781852558E+05,      /* J = 26 */
(PID.TID 0000.0001)                 2.365892017348392E+05,      /* J = 27 */
(PID.TID 0000.0001)                 2.220405216043041E+05,      /* J = 28 */
(PID.TID 0000.0001)                 2.048868197919576E+05,      /* J = 29 */
(PID.TID 0000.0001)                 1.840412227747703E+05,      /* J = 30 */
(PID.TID 0000.0001)                 1.572908084538706E+05,      /* J = 31 */
(PID.TID 0000.0001)                 1.202082051331828E+05       /* J = 32 */
(PID.TID 0000.0001)     ;
(PID.TID 0000.0001) dyF =  /* dyF(:,1,:,1) ( units: m ) */
(PID.TID 0000.0001)                 1.202082051331828E+05,      /* I =  1 */
(PID.TID 0000.0001)                 1.572908084538706E+05,      /* I =  2 */
(PID.TID 0000.0001)                 1.840412227747703E+05,      /* I =  3 */
(PID.TID 0000.0001)                 2.048868197919576E+05,      /* I =  4 */
(PID.TID 0000.0001)                 2.220405216043041E+05,      /* I =  5 */
(PID.TID 0000.0001)                 2.365892017348392E+05,      /* I =  6 */
(PID.TID 0000.0001)                 2.491250781852558E+05,      /* I =  7 */
(PID.TID 0000.0001)                 2.599949918261881E+05,      /* I =  8 */
(PID.TID 0000.0001)                 2.694110134598581E+05,      /* I =  9 */
(PID.TID 0000.0001)                 2.775055554645015E+05,      /* I = 10 */
(PID.TID 0000.0001)                 2.843615645344775E+05,      /* I = 11 */
(PID.TID 0000.0001)                 2.900303768613599E+05,      /* I = 12 */
(PID.TID 0000.0001)                 2.945429307892709E+05,      /* I = 13 */
(PID.TID 0000.0001)                 2.979171143158405E+05,      /* I = 14 */
(PID.TID 0000.0001)                 3.001626787528886E+05,      /* I = 15 */
(PID.TID 0000.0001)     2 @  3.012844832048790E+05,             /* I = 16: 17 */
(PID.TID 0000.0001)                 3.001626787528886E+05,      /* I = 18 */
(PID.TID 0000.0001)                 2.979171143158405E+05,      /* I = 19 */
(PID.TID 0000.0001)                 2.945429307892709E+05,      /* I = 20 */
(PID.TID 0000.0001)                 2.900303768613599E+05,      /* I = 21 */
(PID.TID 0000.0001)                 2.843615645344775E+05,      /* I = 22 */
(PID.TID 0000.0001)                 2.775055554645015E+05,      /* I = 23 */
(PID.TID 0000.0001)                 2.694110134598581E+05,      /* I = 24 */
(PID.TID 0000.0001)                 2.599949918261881E+05,      /* I = 25 */
(PID.TID 0000.0001)                 2.491250781852558E+05,      /* I = 26 */
(PID.TID 0000.0001)                 2.365892017348392E+05,      /* I = 27 */
(PID.TID 0000.0001)                 2.220405216043041E+05,      /* I = 28 */
(PID.TID 0000.0001)                 2.048868197919576E+05,      /* I = 29 */
(PID.TID 0000.0001)                 1.840412227747703E+05,      /* I = 30 */
(PID.TID 0000.0001)                 1.572908084538706E+05,      /* I = 31 */
(PID.TID 0000.0001)                 1.202082051331828E+05       /* I = 32 */
(PID.TID 0000.0001)     ;
(PID.TID 0000.0001) dyF =  /* dyF(1,:,1,:) ( units: m ) */
(PID.TID 0000.0001)                 1.202082051331828E+05,      /* J =  1 */
(PID.TID 0000.0001)                 1.563594089971120E+05,      /* J =  2 */
(PID.TID 0000.0001)                 1.835530058121492E+05,      /* J =  3 */
(PID.TID 0000.0001)                 2.045883481718707E+05,      /* J =  4 */
(PID.TID 0000.0001)                 2.218350349844185E+05,      /* J =  5 */
(PID.TID 0000.0001)                 2.364352994647058E+05,      /* J =  6 */
(PID.TID 0000.0001)                 2.490022710862746E+05,      /* J =  7 */
(PID.TID 0000.0001)                 2.598919724358304E+05,      /* J =  8 */
(PID.TID 0000.0001)                 2.693210245495156E+05,      /* J =  9 */
(PID.TID 0000.0001)                 2.774243179696503E+05,      /* J = 10 */
(PID.TID 0000.0001)                 2.842862532064524E+05,      /* J = 11 */
(PID.TID 0000.0001)                 2.899590699694043E+05,      /* J = 12 */
(PID.TID 0000.0001)                 2.944742915095688E+05,      /* J = 13 */
(PID.TID 0000.0001)                 2.978501920522794E+05,      /* J = 14 */
(PID.TID 0000.0001)                 3.000967749619962E+05,      /* J = 15 */
(PID.TID 0000.0001)     2 @  3.012190981969055E+05,             /* J = 16: 17 */
(PID.TID 0000.0001)                 3.000967749619962E+05,      /* J = 18 */
(PID.TID 0000.0001)                 2.978501920522794E+05,      /* J = 19 */
(PID.TID 0000.0001)                 2.944742915095688E+05,      /* J = 20 */
(PID.TID 0000.0001)                 2.899590699694043E+05,      /* J = 21 */
(PID.TID 0000.0001)                 2.842862532064524E+05,      /* J = 22 */
(PID.TID 0000.0001)                 2.774243179696503E+05,      /* J = 23 */
(PID.TID 0000.0001)                 2.693210245495156E+05,      /* J = 24 */
(PID.TID 0000.0001)                 2.598919724358304E+05,      /* J = 25 */
(PID.TID 0000.0001)                 2.490022710862746E+05,      /* J = 26 */
(PID.TID 0000.0001)                 2.364352994647058E+05,      /* J = 27 */
(PID.TID 0000.0001)                 2.218350349844185E+05,      /* J = 28 */
(PID.TID 0000.0001)                 2.045883481718707E+05,      /* J = 29 */
(PID.TID 0000.0001)                 1.835530058121492E+05,      /* J = 30 */
(PID.TID 0000.0001)                 1.563594089971120E+05,      /* J = 31 */
(PID.TID 0000.0001)                 1.202082051331828E+05       /* J = 32 */
(PID.TID 0000.0001)     ;
(PID.TID 0000.0001) dxG =  /* dxG(:,1,:,1) ( units: m ) */
(PID.TID 0000.0001)                 1.009837800879055E+05,      /* I =  1 */
(PID.TID 0000.0001)                 1.534505834330338E+05,      /* I =  2 */
(PID.TID 0000.0001)                 1.823321598773926E+05,      /* I =  3 */
(PID.TID 0000.0001)                 2.038999045536999E+05,      /* I =  4 */
(PID.TID 0000.0001)                 2.213884732245467E+05,      /* I =  5 */
(PID.TID 0000.0001)                 2.361211699596122E+05,      /* I =  6 */
(PID.TID 0000.0001)                 2.487693460283865E+05,      /* I =  7 */
(PID.TID 0000.0001)                 2.597126963772147E+05,      /* I =  8 */
(PID.TID 0000.0001)                 2.691790288994575E+05,      /* I =  9 */
(PID.TID 0000.0001)                 2.773091043277394E+05,      /* I = 10 */
(PID.TID 0000.0001)                 2.841906470085516E+05,      /* I = 11 */
(PID.TID 0000.0001)                 2.898778860929753E+05,      /* I = 12 */
(PID.TID 0000.0001)                 2.944035815526416E+05,      /* I = 13 */
(PID.TID 0000.0001)                 2.977867909042096E+05,      /* I = 14 */
(PID.TID 0000.0001)                 3.000380090330854E+05,      /* I = 15 */
(PID.TID 0000.0001)     2 @  3.011625828699101E+05,             /* I = 16: 17 */
(PID.TID 0000.0001)                 3.000380090330854E+05,      /* I = 18 */
(PID.TID 0000.0001)                 2.977867909042096E+05,      /* I = 19 */
(PID.TID 0000.0001)                 2.944035815526416E+05,      /* I = 20 */
(PID.TID 0000.0001)                 2.898778860929753E+05,      /* I = 21 */
(PID.TID 0000.0001)                 2.841906470085516E+05,      /* I = 22 */
(PID.TID 0000.0001)                 2.773091043277394E+05,      /* I = 23 */
(PID.TID 0000.0001)                 2.691790288994575E+05,      /* I = 24 */
(PID.TID 0000.0001)                 2.597126963772147E+05,      /* I = 25 */
(PID.TID 0000.0001)                 2.487693460283865E+05,      /* I = 26 */
(PID.TID 0000.0001)                 2.361211699596122E+05,      /* I = 27 */
(PID.TID 0000.0001)                 2.213884732245467E+05,      /* I = 28 */
(PID.TID 0000.0001)                 2.038999045536999E+05,      /* I = 29 */
(PID.TID 0000.0001)                 1.823321598773926E+05,      /* I = 30 */
(PID.TID 0000.0001)                 1.534505834330338E+05,      /* I = 31 */
(PID.TID 0000.0001)                 1.009837800879055E+05       /* I = 32 */
(PID.TID 0000.0001)     ;
(PID.TID 0000.0001) dxG =  /* dxG(1,:,1,:) ( units: m ) */
(PID.TID 0000.0001)                 1.009837800879055E+05,      /* J =  1 */
(PID.TID 0000.0001)                 1.403701524205398E+05,      /* J =  2 */
(PID.TID 0000.0001)                 1.716197227386011E+05,      /* J =  3 */
(PID.TID 0000.0001)                 1.950254041626018E+05,      /* J =  4 */
(PID.TID 0000.0001)                 2.138410773065497E+05,      /* J =  5 */
(PID.TID 0000.0001)                 2.295958105911512E+05,      /* J =  6 */
(PID.TID 0000.0001)                 2.430829951739083E+05,      /* J =  7 */
(PID.TID 0000.0001)                 2.547526806712889E+05,      /* J =  8 */
(PID.TID 0000.0001)                 2.648750305193301E+05,      /* J =  9 */
(PID.TID 0000.0001)                 2.736173771018112E+05,      /* J = 10 */
(PID.TID 0000.0001)                 2.810845823202647E+05,      /* J = 11 */
(PID.TID 0000.0001)                 2.873420591008078E+05,      /* J = 12 */
(PID.TID 0000.0001)                 2.924298293668651E+05,      /* J = 13 */
(PID.TID 0000.0001)                 2.963715635865306E+05,      /* J = 14 */
(PID.TID 0000.0001)                 2.991805843171258E+05,      /* J = 15 */
(PID.TID 0000.0001)                 3.008638765647886E+05,      /* J = 16 */
(PID.TID 0000.0001)                 3.014246674484008E+05,      /* J = 17 */
(PID.TID 0000.0001)                 3.008638765647886E+05,      /* J = 18 */
(PID.TID 0000.0001)                 2.991805843171258E+05,      /* J = 19 */
(PID.TID 0000.0001)                 2.963715635865306E+05,      /* J = 20 */
(PID.TID 0000.0001)                 2.924298293668651E+05,      /* J = 21 */
(PID.TID 0000.0001)                 2.873420591008078E+05,      /* J = 22 */
(PID.TID 0000.0001)                 2.810845823202647E+05,      /* J = 23 */
(PID.TID 0000.0001)                 2.736173771018112E+05,      /* J = 24 */
(PID.TID 0000.0001)                 2.648750305193301E+05,      /* J = 25 */
(PID.TID 0000.0001)                 2.547526806712889E+05,      /* J = 26 */
(PID.TID 0000.0001)                 2.430829951739083E+05,      /* J = 27 */
(PID.TID 0000.0001)                 2.295958105911512E+05,      /* J = 28 */
(PID.TID 0000.0001)                 2.138410773065497E+05,      /* J = 29 */
(PID.TID 0000.0001)                 1.950254041626018E+05,      /* J = 30 */
(PID.TID 0000.0001)                 1.716197227386011E+05,      /* J = 31 */
(PID.TID 0000.0001)                 1.403701524205398E+05       /* J = 32 */
(PID.TID 0000.0001)     ;
(PID.TID 0000.0001) dyG =  /* dyG(:,1,:,1) ( units: m ) */
(PID.TID 0000.0001)                 1.009837800879055E+05,      /* I =  1 */
(PID.TID 0000.0001)                 1.403701524205398E+05,      /* I =  2 */
(PID.TID 0000.0001)                 1.716197227386011E+05,      /* I =  3 */
(PID.TID 0000.0001)                 1.950254041626018E+05,      /* I =  4 */
(PID.TID 0000.0001)                 2.138410773065497E+05,      /* I =  5 */
(PID.TID 0000.0001)                 2.295958105911512E+05,      /* I =  6 */
(PID.TID 0000.0001)                 2.430829951739083E+05,      /* I =  7 */
(PID.TID 0000.0001)                 2.547526806712889E+05,      /* I =  8 */
(PID.TID 0000.0001)                 2.648750305193301E+05,      /* I =  9 */
(PID.TID 0000.0001)                 2.736173771018112E+05,      /* I = 10 */
(PID.TID 0000.0001)                 2.810845823202647E+05,      /* I = 11 */
(PID.TID 0000.0001)                 2.873420591008078E+05,      /* I = 12 */
(PID.TID 0000.0001)                 2.924298293668651E+05,      /* I = 13 */
(PID.TID 0000.0001)                 2.963715635865306E+05,      /* I = 14 */
(PID.TID 0000.0001)                 2.991805843171258E+05,      /* I = 15 */
(PID.TID 0000.0001)                 3.008638765647886E+05,      /* I = 16 */
(PID.TID 0000.0001)                 3.014246674484008E+05,      /* I = 17 */
(PID.TID 0000.0001)                 3.008638765647886E+05,      /* I = 18 */
(PID.TID 0000.0001)                 2.991805843171258E+05,      /* I = 19 */
(PID.TID 0000.0001)                 2.963715635865306E+05,      /* I = 20 */
(PID.TID 0000.0001)                 2.924298293668651E+05,      /* I = 21 */
(PID.TID 0000.0001)                 2.873420591008078E+05,      /* I = 22 */
(PID.TID 0000.0001)                 2.810845823202647E+05,      /* I = 23 */
(PID.TID 0000.0001)                 2.736173771018112E+05,      /* I = 24 */
(PID.TID 0000.0001)                 2.648750305193301E+05,      /* I = 25 */
(PID.TID 0000.0001)                 2.547526806712889E+05,      /* I = 26 */
(PID.TID 0000.0001)                 2.430829951739083E+05,      /* I = 27 */
(PID.TID 0000.0001)                 2.295958105911512E+05,      /* I = 28 */
(PID.TID 0000.0001)                 2.138410773065497E+05,      /* I = 29 */
(PID.TID 0000.0001)                 1.950254041626018E+05,      /* I = 30 */
(PID.TID 0000.0001)                 1.716197227386011E+05,      /* I = 31 */
(PID.TID 0000.0001)                 1.403701524205398E+05       /* I = 32 */
(PID.TID 0000.0001)     ;
(PID.TID 0000.0001) dyG =  /* dyG(1,:,1,:) ( units: m ) */
(PID.TID 0000.0001)                 1.009837800879055E+05,      /* J =  1 */
(PID.TID 0000.0001)                 1.534505834330338E+05,      /* J =  2 */
(PID.TID 0000.0001)                 1.823321598773926E+05,      /* J =  3 */
(PID.TID 0000.0001)                 2.038999045536999E+05,      /* J =  4 */
(PID.TID 0000.0001)                 2.213884732245467E+05,      /* J =  5 */
(PID.TID 0000.0001)                 2.361211699596122E+05,      /* J =  6 */
(PID.TID 0000.0001)                 2.487693460283865E+05,      /* J =  7 */
(PID.TID 0000.0001)                 2.597126963772147E+05,      /* J =  8 */
(PID.TID 0000.0001)                 2.691790288994575E+05,      /* J =  9 */
(PID.TID 0000.0001)                 2.773091043277394E+05,      /* J = 10 */
(PID.TID 0000.0001)                 2.841906470085516E+05,      /* J = 11 */
(PID.TID 0000.0001)                 2.898778860929753E+05,      /* J = 12 */
(PID.TID 0000.0001)                 2.944035815526416E+05,      /* J = 13 */
(PID.TID 0000.0001)                 2.977867909042096E+05,      /* J = 14 */
(PID.TID 0000.0001)                 3.000380090330854E+05,      /* J = 15 */
(PID.TID 0000.0001)     2 @  3.011625828699101E+05,             /* J = 16: 17 */
(PID.TID 0000.0001)                 3.000380090330854E+05,      /* J = 18 */
(PID.TID 0000.0001)                 2.977867909042096E+05,      /* J = 19 */
(PID.TID 0000.0001)                 2.944035815526416E+05,      /* J = 20 */
(PID.TID 0000.0001)                 2.898778860929753E+05,      /* J = 21 */
(PID.TID 0000.0001)                 2.841906470085516E+05,      /* J = 22 */
(PID.TID 0000.0001)                 2.773091043277394E+05,      /* J = 23 */
(PID.TID 0000.0001)                 2.691790288994575E+05,      /* J = 24 */
(PID.TID 0000.0001)                 2.597126963772147E+05,      /* J = 25 */
(PID.TID 0000.0001)                 2.487693460283865E+05,      /* J = 26 */
(PID.TID 0000.0001)                 2.361211699596122E+05,      /* J = 27 */
(PID.TID 0000.0001)                 2.213884732245467E+05,      /* J = 28 */
(PID.TID 0000.0001)                 2.038999045536999E+05,      /* J = 29 */
(PID.TID 0000.0001)                 1.823321598773926E+05,      /* J = 30 */
(PID.TID 0000.0001)                 1.534505834330338E+05,      /* J = 31 */
(PID.TID 0000.0001)                 1.009837800879055E+05       /* J = 32 */
(PID.TID 0000.0001)     ;
(PID.TID 0000.0001) dxC =  /* dxC(:,1,:,1) ( units: m ) */
(PID.TID 0000.0001)                 1.114203141013064E+05,      /* I =  1 */
(PID.TID 0000.0001)                 1.391343389937106E+05,      /* I =  2 */
(PID.TID 0000.0001)                 1.709574999026266E+05,      /* I =  3 */
(PID.TID 0000.0001)                 1.946503699269892E+05,      /* I =  4 */
(PID.TID 0000.0001)                 2.135964483342134E+05,      /* I =  5 */
(PID.TID 0000.0001)                 2.294195678257306E+05,      /* I =  6 */
(PID.TID 0000.0001)                 2.429464709770498E+05,      /* I =  7 */
(PID.TID 0000.0001)                 2.546408290696998E+05,      /* I =  8 */
(PID.TID 0000.0001)                 2.647791839299727E+05,      /* I =  9 */
(PID.TID 0000.0001)                 2.735321911346108E+05,      /* I = 10 */
(PID.TID 0000.0001)                 2.810065951609633E+05,      /* I = 11 */
(PID.TID 0000.0001)                 2.872689479506990E+05,      /* I = 12 */
(PID.TID 0000.0001)                 2.923599955312932E+05,      /* I = 13 */
(PID.TID 0000.0001)                 2.963038832565530E+05,      /* I = 14 */
(PID.TID 0000.0001)                 2.991142470004740E+05,      /* I = 15 */
(PID.TID 0000.0001)                 3.007982711627968E+05,      /* I = 16 */
(PID.TID 0000.0001)                 3.013593857228136E+05,      /* I = 17 */
(PID.TID 0000.0001)                 3.007982711627968E+05,      /* I = 18 */
(PID.TID 0000.0001)                 2.991142470004740E+05,      /* I = 19 */
(PID.TID 0000.0001)                 2.963038832565530E+05,      /* I = 20 */
(PID.TID 0000.0001)                 2.923599955312932E+05,      /* I = 21 */
(PID.TID 0000.0001)                 2.872689479506990E+05,      /* I = 22 */
(PID.TID 0000.0001)                 2.810065951609633E+05,      /* I = 23 */
(PID.TID 0000.0001)                 2.735321911346108E+05,      /* I = 24 */
(PID.TID 0000.0001)                 2.647791839299727E+05,      /* I = 25 */
(PID.TID 0000.0001)                 2.546408290696998E+05,      /* I = 26 */
(PID.TID 0000.0001)                 2.429464709770498E+05,      /* I = 27 */
(PID.TID 0000.0001)                 2.294195678257306E+05,      /* I = 28 */
(PID.TID 0000.0001)                 2.135964483342134E+05,      /* I = 29 */
(PID.TID 0000.0001)                 1.946503699269892E+05,      /* I = 30 */
(PID.TID 0000.0001)                 1.709574999026266E+05,      /* I = 31 */
(PID.TID 0000.0001)                 1.391343389937106E+05       /* I = 32 */
(PID.TID 0000.0001)     ;
(PID.TID 0000.0001) dxC =  /* dxC(1,:,1,:) ( units: m ) */
(PID.TID 0000.0001)                 1.114203141013064E+05,      /* J =  1 */
(PID.TID 0000.0001)                 1.549545757850771E+05,      /* J =  2 */
(PID.TID 0000.0001)                 1.829777599966776E+05,      /* J =  3 */
(PID.TID 0000.0001)                 2.042717761866506E+05,      /* J =  4 */
(PID.TID 0000.0001)                 2.216367828252819E+05,      /* J =  5 */
(PID.TID 0000.0001)                 2.363029564123586E+05,      /* J =  6 */
(PID.TID 0000.0001)                 2.489113743322025E+05,      /* J =  7 */
(PID.TID 0000.0001)                 2.598293319150326E+05,      /* J =  8 */
(PID.TID 0000.0001)                 2.692787333338535E+05,      /* J =  9 */
(PID.TID 0000.0001)                 2.773972106720365E+05,      /* J = 10 */
(PID.TID 0000.0001)                 2.842706922224557E+05,      /* J = 11 */
(PID.TID 0000.0001)                 2.899523122489403E+05,      /* J = 12 */
(PID.TID 0000.0001)                 2.944741346384699E+05,      /* J = 13 */
(PID.TID 0000.0001)                 2.978547649292580E+05,      /* J = 14 */
(PID.TID 0000.0001)                 3.001044073506459E+05,      /* J = 15 */
(PID.TID 0000.0001)     2 @  3.012281885409289E+05,             /* J = 16: 17 */
(PID.TID 0000.0001)                 3.001044073506459E+05,      /* J = 18 */
(PID.TID 0000.0001)                 2.978547649292580E+05,      /* J = 19 */
(PID.TID 0000.0001)                 2.944741346384699E+05,      /* J = 20 */
(PID.TID 0000.0001)                 2.899523122489403E+05,      /* J = 21 */
(PID.TID 0000.0001)                 2.842706922224557E+05,      /* J = 22 */
(PID.TID 0000.0001)                 2.773972106720365E+05,      /* J = 23 */
(PID.TID 0000.0001)                 2.692787333338535E+05,      /* J = 24 */
(PID.TID 0000.0001)                 2.598293319150326E+05,      /* J = 25 */
(PID.TID 0000.0001)                 2.489113743322025E+05,      /* J = 26 */
(PID.TID 0000.0001)                 2.363029564123586E+05,      /* J = 27 */
(PID.TID 0000.0001)                 2.216367828252819E+05,      /* J = 28 */
(PID.TID 0000.0001)                 2.042717761866506E+05,      /* J = 29 */
(PID.TID 0000.0001)                 1.829777599966776E+05,      /* J = 30 */
(PID.TID 0000.0001)                 1.549545757850771E+05,      /* J = 31 */
(PID.TID 0000.0001)                 1.114203141013064E+05       /* J = 32 */
(PID.TID 0000.0001)     ;
(PID.TID 0000.0001) dyC =  /* dyC(:,1,:,1) ( units: m ) */
(PID.TID 0000.0001)                 1.114203141013064E+05,      /* I =  1 */
(PID.TID 0000.0001)                 1.549545757850771E+05,      /* I =  2 */
(PID.TID 0000.0001)                 1.829777599966776E+05,      /* I =  3 */
(PID.TID 0000.0001)                 2.042717761866506E+05,      /* I =  4 */
(PID.TID 0000.0001)                 2.216367828252819E+05,      /* I =  5 */
(PID.TID 0000.0001)                 2.363029564123586E+05,      /* I =  6 */
(PID.TID 0000.0001)                 2.489113743322025E+05,      /* I =  7 */
(PID.TID 0000.0001)                 2.598293319150326E+05,      /* I =  8 */
(PID.TID 0000.0001)                 2.692787333338535E+05,      /* I =  9 */
(PID.TID 0000.0001)                 2.773972106720365E+05,      /* I = 10 */
(PID.TID 0000.0001)                 2.842706922224557E+05,      /* I = 11 */
(PID.TID 0000.0001)                 2.899523122489403E+05,      /* I = 12 */
(PID.TID 0000.0001)                 2.944741346384699E+05,      /* I = 13 */
(PID.TID 0000.0001)                 2.978547649292580E+05,      /* I = 14 */
(PID.TID 0000.0001)                 3.001044073506459E+05,      /* I = 15 */
(PID.TID 0000.0001)     2 @  3.012281885409289E+05,             /* I = 16: 17 */
(PID.TID 0000.0001)                 3.001044073506459E+05,      /* I = 18 */
(PID.TID 0000.0001)                 2.978547649292580E+05,      /* I = 19 */
(PID.TID 0000.0001)                 2.944741346384699E+05,      /* I = 20 */
(PID.TID 0000.0001)                 2.899523122489403E+05,      /* I = 21 */
(PID.TID 0000.0001)                 2.842706922224557E+05,      /* I = 22 */
(PID.TID 0000.0001)                 2.773972106720365E+05,      /* I = 23 */
(PID.TID 0000.0001)                 2.692787333338535E+05,      /* I = 24 */
(PID.TID 0000.0001)                 2.598293319150326E+05,      /* I = 25 */
(PID.TID 0000.0001)                 2.489113743322025E+05,      /* I = 26 */
(PID.TID 0000.0001)                 2.363029564123586E+05,      /* I = 27 */
(PID.TID 0000.0001)                 2.216367828252819E+05,      /* I = 28 */
(PID.TID 0000.0001)                 2.042717761866506E+05,      /* I = 29 */
(PID.TID 0000.0001)                 1.829777599966776E+05,      /* I = 30 */
(PID.TID 0000.0001)                 1.549545757850771E+05,      /* I = 31 */
(PID.TID 0000.0001)                 1.114203141013064E+05       /* I = 32 */
(PID.TID 0000.0001)     ;
(PID.TID 0000.0001) dyC =  /* dyC(1,:,1,:) ( units: m ) */
(PID.TID 0000.0001)                 1.114203141013064E+05,      /* J =  1 */
(PID.TID 0000.0001)                 1.391343389937106E+05,      /* J =  2 */
(PID.TID 0000.0001)                 1.709574999026266E+05,      /* J =  3 */
(PID.TID 0000.0001)                 1.946503699269892E+05,      /* J =  4 */
(PID.TID 0000.0001)                 2.135964483342134E+05,      /* J =  5 */
(PID.TID 0000.0001)                 2.294195678257306E+05,      /* J =  6 */
(PID.TID 0000.0001)                 2.429464709770498E+05,      /* J =  7 */
(PID.TID 0000.0001)                 2.546408290696998E+05,      /* J =  8 */
(PID.TID 0000.0001)                 2.647791839299727E+05,      /* J =  9 */
(PID.TID 0000.0001)                 2.735321911346108E+05,      /* J = 10 */
(PID.TID 0000.0001)                 2.810065951609633E+05,      /* J = 11 */
(PID.TID 0000.0001)                 2.872689479506990E+05,      /* J = 12 */
(PID.TID 0000.0001)                 2.923599955312932E+05,      /* J = 13 */
(PID.TID 0000.0001)                 2.963038832565530E+05,      /* J = 14 */
(PID.TID 0000.0001)                 2.991142470004740E+05,      /* J = 15 */
(PID.TID 0000.0001)                 3.007982711627968E+05,      /* J = 16 */
(PID.TID 0000.0001)                 3.013593857228136E+05,      /* J = 17 */
(PID.TID 0000.0001)                 3.007982711627968E+05,      /* J = 18 */
(PID.TID 0000.0001)                 2.991142470004740E+05,      /* J = 19 */
(PID.TID 0000.0001)                 2.963038832565530E+05,      /* J = 20 */
(PID.TID 0000.0001)                 2.923599955312932E+05,      /* J = 21 */
(PID.TID 0000.0001)                 2.872689479506990E+05,      /* J = 22 */
(PID.TID 0000.0001)                 2.810065951609633E+05,      /* J = 23 */
(PID.TID 0000.0001)                 2.735321911346108E+05,      /* J = 24 */
(PID.TID 0000.0001)                 2.647791839299727E+05,      /* J = 25 */
(PID.TID 0000.0001)                 2.546408290696998E+05,      /* J = 26 */
(PID.TID 0000.0001)                 2.429464709770498E+05,      /* J = 27 */
(PID.TID 0000.0001)                 2.294195678257306E+05,      /* J = 28 */
(PID.TID 0000.0001)                 2.135964483342134E+05,      /* J = 29 */
(PID.TID 0000.0001)                 1.946503699269892E+05,      /* J = 30 */
(PID.TID 0000.0001)                 1.709574999026266E+05,      /* J = 31 */
(PID.TID 0000.0001)                 1.391343389937106E+05       /* J = 32 */
(PID.TID 0000.0001)     ;
(PID.TID 0000.0001) dxV =  /* dxV(:,1,:,1) ( units: m ) */
(PID.TID 0000.0001)                 8.015229982413632E+04,      /* I =  1 */
(PID.TID 0000.0001)                 1.333130744933864E+05,      /* I =  2 */
(PID.TID 0000.0001)                 1.691744868129062E+05,      /* I =  3 */
(PID.TID 0000.0001)                 1.937548202849060E+05,      /* I =  4 */
(PID.TID 0000.0001)                 2.130490056267208E+05,      /* I =  5 */
(PID.TID 0000.0001)                 2.290479919481738E+05,      /* I =  6 */
(PID.TID 0000.0001)                 2.426774358027003E+05,      /* I =  7 */
(PID.TID 0000.0001)                 2.544372984215561E+05,      /* I =  8 */
(PID.TID 0000.0001)                 2.646201463834826E+05,      /* I =  9 */
(PID.TID 0000.0001)                 2.734046499619031E+05,      /* I = 10 */
(PID.TID 0000.0001)                 2.809019351693761E+05,      /* I = 11 */
(PID.TID 0000.0001)                 2.871811105274442E+05,      /* I = 12 */
(PID.TID 0000.0001)                 2.922844849381675E+05,      /* I = 13 */
(PID.TID 0000.0001)                 2.962371870847826E+05,      /* I = 14 */
(PID.TID 0000.0001)                 2.990534755671296E+05,      /* I = 15 */
(PID.TID 0000.0001)                 3.007409169495504E+05,      /* I = 16 */
(PID.TID 0000.0001)                 3.013031486919771E+05,      /* I = 17 */
(PID.TID 0000.0001)                 3.007409169495504E+05,      /* I = 18 */
(PID.TID 0000.0001)                 2.990534755671296E+05,      /* I = 19 */
(PID.TID 0000.0001)                 2.962371870847826E+05,      /* I = 20 */
(PID.TID 0000.0001)                 2.922844849381675E+05,      /* I = 21 */
(PID.TID 0000.0001)                 2.871811105274442E+05,      /* I = 22 */
(PID.TID 0000.0001)                 2.809019351693761E+05,      /* I = 23 */
(PID.TID 0000.0001)                 2.734046499619031E+05,      /* I = 24 */
(PID.TID 0000.0001)                 2.646201463834826E+05,      /* I = 25 */
(PID.TID 0000.0001)                 2.544372984215561E+05,      /* I = 26 */
(PID.TID 0000.0001)                 2.426774358027003E+05,      /* I = 27 */
(PID.TID 0000.0001)                 2.290479919481738E+05,      /* I = 28 */
(PID.TID 0000.0001)                 2.130490056267208E+05,      /* I = 29 */
(PID.TID 0000.0001)                 1.937548202849060E+05,      /* I = 30 */
(PID.TID 0000.0001)                 1.691744868129062E+05,      /* I = 31 */
(PID.TID 0000.0001)                 1.333130744933864E+05       /* I = 32 */
(PID.TID 0000.0001)     ;
(PID.TID 0000.0001) dxV =  /* dxV(1,:,1,:) ( units: m ) */
(PID.TID 0000.0001)                 8.015229982413632E+04,      /* J =  1 */
(PID.TID 0000.0001)                 1.362652340208229E+05,      /* J =  2 */
(PID.TID 0000.0001)                 1.701080315742101E+05,      /* J =  3 */
(PID.TID 0000.0001)                 1.942331448101592E+05,      /* J =  4 */
(PID.TID 0000.0001)                 2.133486626971531E+05,      /* J =  5 */
(PID.TID 0000.0001)                 2.292584591272880E+05,      /* J =  6 */
(PID.TID 0000.0001)                 2.428369969078989E+05,      /* J =  7 */
(PID.TID 0000.0001)                 2.545652950875683E+05,      /* J =  8 */
(PID.TID 0000.0001)                 2.647274964828301E+05,      /* J =  9 */
(PID.TID 0000.0001)                 2.734980225206389E+05,      /* J = 10 */
(PID.TID 0000.0001)                 2.809856491525217E+05,      /* J = 11 */
(PID.TID 0000.0001)                 2.872580915202295E+05,      /* J = 12 */
(PID.TID 0000.0001)                 2.923567890694162E+05,      /* J = 13 */
(PID.TID 0000.0001)                 2.963063101754721E+05,      /* J = 14 */
(PID.TID 0000.0001)                 2.991205495886625E+05,      /* J = 15 */
(PID.TID 0000.0001)                 3.008068453676764E+05,      /* J = 16 */
(PID.TID 0000.0001)                 3.013686170436881E+05,      /* J = 17 */
(PID.TID 0000.0001)                 3.008068453676764E+05,      /* J = 18 */
(PID.TID 0000.0001)                 2.991205495886625E+05,      /* J = 19 */
(PID.TID 0000.0001)                 2.963063101754721E+05,      /* J = 20 */
(PID.TID 0000.0001)                 2.923567890694162E+05,      /* J = 21 */
(PID.TID 0000.0001)                 2.872580915202295E+05,      /* J = 22 */
(PID.TID 0000.0001)                 2.809856491525217E+05,      /* J = 23 */
(PID.TID 0000.0001)                 2.734980225206389E+05,      /* J = 24 */
(PID.TID 0000.0001)                 2.647274964828301E+05,      /* J = 25 */
(PID.TID 0000.0001)                 2.545652950875683E+05,      /* J = 26 */
(PID.TID 0000.0001)                 2.428369969078989E+05,      /* J = 27 */
(PID.TID 0000.0001)                 2.292584591272880E+05,      /* J = 28 */
(PID.TID 0000.0001)                 2.133486626971531E+05,      /* J = 29 */
(PID.TID 0000.0001)                 1.942331448101592E+05,      /* J = 30 */
(PID.TID 0000.0001)                 1.701080315742101E+05,      /* J = 31 */
(PID.TID 0000.0001)                 1.362652340208229E+05       /* J = 32 */
(PID.TID 0000.0001)     ;
(PID.TID 0000.0001) dyU =  /* dyU(:,1,:,1) ( units: m ) */
(PID.TID 0000.0001)                 8.015229982413632E+04,      /* I =  1 */
(PID.TID 0000.0001)                 1.362652340208229E+05,      /* I =  2 */
(PID.TID 0000.0001)                 1.701080315742101E+05,      /* I =  3 */
(PID.TID 0000.0001)                 1.942331448101592E+05,      /* I =  4 */
(PID.TID 0000.0001)                 2.133486626971531E+05,      /* I =  5 */
(PID.TID 0000.0001)                 2.292584591272880E+05,      /* I =  6 */
(PID.TID 0000.0001)                 2.428369969078989E+05,      /* I =  7 */
(PID.TID 0000.0001)                 2.545652950875683E+05,      /* I =  8 */
(PID.TID 0000.0001)                 2.647274964828301E+05,      /* I =  9 */
(PID.TID 0000.0001)                 2.734980225206389E+05,      /* I = 10 */
(PID.TID 0000.0001)                 2.809856491525217E+05,      /* I = 11 */
(PID.TID 0000.0001)                 2.872580915202295E+05,      /* I = 12 */
(PID.TID 0000.0001)                 2.923567890694162E+05,      /* I = 13 */
(PID.TID 0000.0001)                 2.963063101754721E+05,      /* I = 14 */
(PID.TID 0000.0001)                 2.991205495886625E+05,      /* I = 15 */
(PID.TID 0000.0001)                 3.008068453676764E+05,      /* I = 16 */
(PID.TID 0000.0001)                 3.013686170436881E+05,      /* I = 17 */
(PID.TID 0000.0001)                 3.008068453676764E+05,      /* I = 18 */
(PID.TID 0000.0001)                 2.991205495886625E+05,      /* I = 19 */
(PID.TID 0000.0001)                 2.963063101754721E+05,      /* I = 20 */
(PID.TID 0000.0001)                 2.923567890694162E+05,      /* I = 21 */
(PID.TID 0000.0001)                 2.872580915202295E+05,      /* I = 22 */
(PID.TID 0000.0001)                 2.809856491525217E+05,      /* I = 23 */
(PID.TID 0000.0001)                 2.734980225206389E+05,      /* I = 24 */
(PID.TID 0000.0001)                 2.647274964828301E+05,      /* I = 25 */
(PID.TID 0000.0001)                 2.545652950875683E+05,      /* I = 26 */
(PID.TID 0000.0001)                 2.428369969078989E+05,      /* I = 27 */
(PID.TID 0000.0001)                 2.292584591272880E+05,      /* I = 28 */
(PID.TID 0000.0001)                 2.133486626971531E+05,      /* I = 29 */
(PID.TID 0000.0001)                 1.942331448101592E+05,      /* I = 30 */
(PID.TID 0000.0001)                 1.701080315742101E+05,      /* I = 31 */
(PID.TID 0000.0001)                 1.362652340208229E+05       /* I = 32 */
(PID.TID 0000.0001)     ;
(PID.TID 0000.0001) dyU =  /* dyU(1,:,1,:) ( units: m ) */
(PID.TID 0000.0001)                 8.015229982413632E+04,      /* J =  1 */
(PID.TID 0000.0001)                 1.333130744933864E+05,      /* J =  2 */
(PID.TID 0000.0001)                 1.691744868129062E+05,      /* J =  3 */
(PID.TID 0000.0001)                 1.937548202849060E+05,      /* J =  4 */
(PID.TID 0000.0001)                 2.130490056267208E+05,      /* J =  5 */
(PID.TID 0000.0001)                 2.290479919481738E+05,      /* J =  6 */
(PID.TID 0000.0001)                 2.426774358027003E+05,      /* J =  7 */
(PID.TID 0000.0001)                 2.544372984215561E+05,      /* J =  8 */
(PID.TID 0000.0001)                 2.646201463834826E+05,      /* J =  9 */
(PID.TID 0000.0001)                 2.734046499619031E+05,      /* J = 10 */
(PID.TID 0000.0001)                 2.809019351693761E+05,      /* J = 11 */
(PID.TID 0000.0001)                 2.871811105274442E+05,      /* J = 12 */
(PID.TID 0000.0001)                 2.922844849381675E+05,      /* J = 13 */
(PID.TID 0000.0001)                 2.962371870847826E+05,      /* J = 14 */
(PID.TID 0000.0001)                 2.990534755671296E+05,      /* J = 15 */
(PID.TID 0000.0001)                 3.007409169495504E+05,      /* J = 16 */
(PID.TID 0000.0001)                 3.013031486919771E+05,      /* J = 17 */
(PID.TID 0000.0001)                 3.007409169495504E+05,      /* J = 18 */
(PID.TID 0000.0001)                 2.990534755671296E+05,      /* J = 19 */
(PID.TID 0000.0001)                 2.962371870847826E+05,      /* J = 20 */
(PID.TID 0000.0001)                 2.922844849381675E+05,      /* J = 21 */
(PID.TID 0000.0001)                 2.871811105274442E+05,      /* J = 22 */
(PID.TID 0000.0001)                 2.809019351693761E+05,      /* J = 23 */
(PID.TID 0000.0001)                 2.734046499619031E+05,      /* J = 24 */
(PID.TID 0000.0001)                 2.646201463834826E+05,      /* J = 25 */
(PID.TID 0000.0001)                 2.544372984215561E+05,      /* J = 26 */
(PID.TID 0000.0001)                 2.426774358027003E+05,      /* J = 27 */
(PID.TID 0000.0001)                 2.290479919481738E+05,      /* J = 28 */
(PID.TID 0000.0001)                 2.130490056267208E+05,      /* J = 29 */
(PID.TID 0000.0001)                 1.937548202849060E+05,      /* J = 30 */
(PID.TID 0000.0001)                 1.691744868129062E+05,      /* J = 31 */
(PID.TID 0000.0001)                 1.333130744933864E+05       /* J = 32 */
(PID.TID 0000.0001)     ;
(PID.TID 0000.0001) rA  =  /* rA (:,1,:,1) ( units: m^2 ) */
(PID.TID 0000.0001)                 1.401900702255611E+10,      /* I =  1 */
(PID.TID 0000.0001)                 2.459906945574446E+10,      /* I =  2 */
(PID.TID 0000.0001)                 3.378518544307869E+10,      /* I =  3 */
(PID.TID 0000.0001)                 4.192037169898667E+10,      /* I =  4 */
(PID.TID 0000.0001)                 4.925938996118163E+10,      /* I =  5 */
(PID.TID 0000.0001)                 5.594154126607553E+10,      /* I =  6 */
(PID.TID 0000.0001)                 6.203683527772523E+10,      /* I =  7 */
(PID.TID 0000.0001)                 6.757541173817516E+10,      /* I =  8 */
(PID.TID 0000.0001)                 7.256353271748119E+10,      /* I =  9 */
(PID.TID 0000.0001)                 7.699293007098555E+10,      /* I = 10 */
(PID.TID 0000.0001)                 8.084683449728902E+10,      /* I = 11 */
(PID.TID 0000.0001)                 8.410423102796223E+10,      /* I = 12 */
(PID.TID 0000.0001)                 8.674306976737517E+10,      /* I = 13 */
(PID.TID 0000.0001)                 8.874277443041928E+10,      /* I = 14 */
(PID.TID 0000.0001)                 9.008620045350865E+10,      /* I = 15 */
(PID.TID 0000.0001)                 9.076111290418457E+10,      /* I = 16 */
(PID.TID 0000.0001)                 9.076111290422060E+10,      /* I = 17 */
(PID.TID 0000.0001)                 9.008620045354469E+10,      /* I = 18 */
(PID.TID 0000.0001)                 8.874277443041928E+10,      /* I = 19 */
(PID.TID 0000.0001)                 8.674306976741121E+10,      /* I = 20 */
(PID.TID 0000.0001)                 8.410423102799828E+10,      /* I = 21 */
(PID.TID 0000.0001)                 8.084683449728902E+10,      /* I = 22 */
(PID.TID 0000.0001)                 7.699293007098555E+10,      /* I = 23 */
(PID.TID 0000.0001)                 7.256353271748119E+10,      /* I = 24 */
(PID.TID 0000.0001)                 6.757541173817516E+10,      /* I = 25 */
(PID.TID 0000.0001)                 6.203683527772523E+10,      /* I = 26 */
(PID.TID 0000.0001)                 5.594154126611156E+10,      /* I = 27 */
(PID.TID 0000.0001)                 4.925938996118163E+10,      /* I = 28 */
(PID.TID 0000.0001)                 4.192037169898667E+10,      /* I = 29 */
(PID.TID 0000.0001)                 3.378518544304265E+10,      /* I = 30 */
(PID.TID 0000.0001)                 2.459906945574446E+10,      /* I = 31 */
(PID.TID 0000.0001)                 1.401900702259215E+10       /* I = 32 */
(PID.TID 0000.0001)     ;
(PID.TID 0000.0001) rA  =  /* rA (1,:,1,:) ( units: m^2 ) */
(PID.TID 0000.0001)                 1.401900702255611E+10,      /* J =  1 */
(PID.TID 0000.0001)                 2.459906945574446E+10,      /* J =  2 */
(PID.TID 0000.0001)                 3.378518544307869E+10,      /* J =  3 */
(PID.TID 0000.0001)                 4.192037169898667E+10,      /* J =  4 */
(PID.TID 0000.0001)                 4.925938996118163E+10,      /* J =  5 */
(PID.TID 0000.0001)                 5.594154126607553E+10,      /* J =  6 */
(PID.TID 0000.0001)                 6.203683527776127E+10,      /* J =  7 */
(PID.TID 0000.0001)                 6.757541173817516E+10,      /* J =  8 */
(PID.TID 0000.0001)                 7.256353271748119E+10,      /* J =  9 */
(PID.TID 0000.0001)                 7.699293007098555E+10,      /* J = 10 */
(PID.TID 0000.0001)                 8.084683449728902E+10,      /* J = 11 */
(PID.TID 0000.0001)                 8.410423102799828E+10,      /* J = 12 */
(PID.TID 0000.0001)                 8.674306976737517E+10,      /* J = 13 */
(PID.TID 0000.0001)                 8.874277443041928E+10,      /* J = 14 */
(PID.TID 0000.0001)                 9.008620045350865E+10,      /* J = 15 */
(PID.TID 0000.0001)                 9.076111290418457E+10,      /* J = 16 */
(PID.TID 0000.0001)                 9.076111290422060E+10,      /* J = 17 */
(PID.TID 0000.0001)                 9.008620045354469E+10,      /* J = 18 */
(PID.TID 0000.0001)                 8.874277443041928E+10,      /* J = 19 */
(PID.TID 0000.0001)                 8.674306976737517E+10,      /* J = 20 */
(PID.TID 0000.0001)                 8.410423102799828E+10,      /* J = 21 */
(PID.TID 0000.0001)                 8.084683449728902E+10,      /* J = 22 */
(PID.TID 0000.0001)                 7.699293007098555E+10,      /* J = 23 */
(PID.TID 0000.0001)                 7.256353271748119E+10,      /* J = 24 */
(PID.TID 0000.0001)                 6.757541173817516E+10,      /* J = 25 */
(PID.TID 0000.0001)                 6.203683527772523E+10,      /* J = 26 */
(PID.TID 0000.0001)                 5.594154126607553E+10,      /* J = 27 */
(PID.TID 0000.0001)                 4.925938996118163E+10,      /* J = 28 */
(PID.TID 0000.0001)                 4.192037169898667E+10,      /* J = 29 */
(PID.TID 0000.0001)                 3.378518544307869E+10,      /* J = 30 */
(PID.TID 0000.0001)                 2.459906945574446E+10,      /* J = 31 */
(PID.TID 0000.0001)                 1.401900702259215E+10       /* J = 32 */
(PID.TID 0000.0001)     ;
(PID.TID 0000.0001) rAw =  /* rAw(:,1,:,1) ( units: m^2 ) */
(PID.TID 0000.0001)                 1.216690346714270E+10,      /* I =  1 */
(PID.TID 0000.0001)                 1.974052138506315E+10,      /* I =  2 */
(PID.TID 0000.0001)                 2.943712825252015E+10,      /* I =  3 */
(PID.TID 0000.0001)                 3.801790263324359E+10,      /* I =  4 */
(PID.TID 0000.0001)                 4.571243814189866E+10,      /* I =  5 */
(PID.TID 0000.0001)                 5.269930713599979E+10,      /* I =  6 */
(PID.TID 0000.0001)                 5.907428494299063E+10,      /* I =  7 */
(PID.TID 0000.0001)                 6.488320895111514E+10,      /* I =  8 */
(PID.TID 0000.0001)                 7.014205907741882E+10,      /* I =  9 */
(PID.TID 0000.0001)                 7.484854821847499E+10,      /* I = 10 */
(PID.TID 0000.0001)                 7.898934631431560E+10,      /* I = 11 */
(PID.TID 0000.0001)                 8.254500894894537E+10,      /* I = 12 */
(PID.TID 0000.0001)                 8.549360686473492E+10,      /* I = 13 */
(PID.TID 0000.0001)                 8.781353403175085E+10,      /* I = 14 */
(PID.TID 0000.0001)                 8.948571540392021E+10,      /* I = 15 */
(PID.TID 0000.0001)                 9.049530583086168E+10,      /* I = 16 */
(PID.TID 0000.0001)                 9.083293515008307E+10,      /* I = 17 */
(PID.TID 0000.0001)                 9.049530583087070E+10,      /* I = 18 */
(PID.TID 0000.0001)                 8.948571540391121E+10,      /* I = 19 */
(PID.TID 0000.0001)                 8.781353403174185E+10,      /* I = 20 */
(PID.TID 0000.0001)                 8.549360686467184E+10,      /* I = 21 */
(PID.TID 0000.0001)                 8.254500894890933E+10,      /* I = 22 */
(PID.TID 0000.0001)                 7.898934631434262E+10,      /* I = 23 */
(PID.TID 0000.0001)                 7.484854821844795E+10,      /* I = 24 */
(PID.TID 0000.0001)                 7.014205907742783E+10,      /* I = 25 */
(PID.TID 0000.0001)                 6.488320895111514E+10,      /* I = 26 */
(PID.TID 0000.0001)                 5.907428494299063E+10,      /* I = 27 */
(PID.TID 0000.0001)                 5.269930713599078E+10,      /* I = 28 */
(PID.TID 0000.0001)                 4.571243814190767E+10,      /* I = 29 */
(PID.TID 0000.0001)                 3.801790263325260E+10,      /* I = 30 */
(PID.TID 0000.0001)                 2.943712825251114E+10,      /* I = 31 */
(PID.TID 0000.0001)                 1.974052138509018E+10       /* I = 32 */
(PID.TID 0000.0001)     ;
(PID.TID 0000.0001) rAw =  /* rAw(1,:,1,:) ( units: m^2 ) */
(PID.TID 0000.0001)                 1.216690346714270E+10,      /* J =  1 */
(PID.TID 0000.0001)                 2.390126200743558E+10,      /* J =  2 */
(PID.TID 0000.0001)                 3.341968103208270E+10,      /* J =  3 */
(PID.TID 0000.0001)                 4.168532893152940E+10,      /* J =  4 */
(PID.TID 0000.0001)                 4.909074590409593E+10,      /* J =  5 */
(PID.TID 0000.0001)                 5.581203765722643E+10,      /* J =  6 */
(PID.TID 0000.0001)                 6.193257577506788E+10,      /* J =  7 */
(PID.TID 0000.0001)                 6.748840226738273E+10,      /* J =  8 */
(PID.TID 0000.0001)                 7.248875782324815E+10,      /* J =  9 */
(PID.TID 0000.0001)                 7.692702995909871E+10,      /* J = 10 */
(PID.TID 0000.0001)                 8.078743937057304E+10,      /* J = 11 */
(PID.TID 0000.0001)                 8.404959656062837E+10,      /* J = 12 */
(PID.TID 0000.0001)                 8.669186205742538E+10,      /* J = 13 */
(PID.TID 0000.0001)                 8.869393350723613E+10,      /* J = 14 */
(PID.TID 0000.0001)                 9.003884657168852E+10,      /* J = 15 */
(PID.TID 0000.0001)     2 @  9.071447638299399E+10,             /* J = 16: 17 */
(PID.TID 0000.0001)                 9.003884657168852E+10,      /* J = 18 */
(PID.TID 0000.0001)                 8.869393350723613E+10,      /* J = 19 */
(PID.TID 0000.0001)                 8.669186205742538E+10,      /* J = 20 */
(PID.TID 0000.0001)                 8.404959656062837E+10,      /* J = 21 */
(PID.TID 0000.0001)                 8.078743937057304E+10,      /* J = 22 */
(PID.TID 0000.0001)                 7.692702995909871E+10,      /* J = 23 */
(PID.TID 0000.0001)                 7.248875782324815E+10,      /* J = 24 */
(PID.TID 0000.0001)                 6.748840226738273E+10,      /* J = 25 */
(PID.TID 0000.0001)                 6.193257577506788E+10,      /* J = 26 */
(PID.TID 0000.0001)                 5.581203765722643E+10,      /* J = 27 */
(PID.TID 0000.0001)                 4.909074590409593E+10,      /* J = 28 */
(PID.TID 0000.0001)                 4.168532893152940E+10,      /* J = 29 */
(PID.TID 0000.0001)                 3.341968103208270E+10,      /* J = 30 */
(PID.TID 0000.0001)                 2.390126200743558E+10,      /* J = 31 */
(PID.TID 0000.0001)                 1.216690346714270E+10       /* J = 32 */
(PID.TID 0000.0001)     ;
(PID.TID 0000.0001) rAs =  /* rAs(:,1,:,1) ( units: m^2 ) */
(PID.TID 0000.0001)                 1.216690346714270E+10,      /* I =  1 */
(PID.TID 0000.0001)                 2.390126200743558E+10,      /* I =  2 */
(PID.TID 0000.0001)                 3.341968103208270E+10,      /* I =  3 */
(PID.TID 0000.0001)                 4.168532893152940E+10,      /* I =  4 */
(PID.TID 0000.0001)                 4.909074590409593E+10,      /* I =  5 */
(PID.TID 0000.0001)                 5.581203765722643E+10,      /* I =  6 */
(PID.TID 0000.0001)                 6.193257577506788E+10,      /* I =  7 */
(PID.TID 0000.0001)                 6.748840226738273E+10,      /* I =  8 */
(PID.TID 0000.0001)                 7.248875782324815E+10,      /* I =  9 */
(PID.TID 0000.0001)                 7.692702995909871E+10,      /* I = 10 */
(PID.TID 0000.0001)                 8.078743937057304E+10,      /* I = 11 */
(PID.TID 0000.0001)                 8.404959656062837E+10,      /* I = 12 */
(PID.TID 0000.0001)                 8.669186205742538E+10,      /* I = 13 */
(PID.TID 0000.0001)                 8.869393350723613E+10,      /* I = 14 */
(PID.TID 0000.0001)                 9.003884657168852E+10,      /* I = 15 */
(PID.TID 0000.0001)     2 @  9.071447638299399E+10,             /* I = 16: 17 */
(PID.TID 0000.0001)                 9.003884657168852E+10,      /* I = 18 */
(PID.TID 0000.0001)                 8.869393350723613E+10,      /* I = 19 */
(PID.TID 0000.0001)                 8.669186205742538E+10,      /* I = 20 */
(PID.TID 0000.0001)                 8.404959656062837E+10,      /* I = 21 */
(PID.TID 0000.0001)                 8.078743937057304E+10,      /* I = 22 */
(PID.TID 0000.0001)                 7.692702995909871E+10,      /* I = 23 */
(PID.TID 0000.0001)                 7.248875782324815E+10,      /* I = 24 */
(PID.TID 0000.0001)                 6.748840226738273E+10,      /* I = 25 */
(PID.TID 0000.0001)                 6.193257577506788E+10,      /* I = 26 */
(PID.TID 0000.0001)                 5.581203765722643E+10,      /* I = 27 */
(PID.TID 0000.0001)                 4.909074590409593E+10,      /* I = 28 */
(PID.TID 0000.0001)                 4.168532893152940E+10,      /* I = 29 */
(PID.TID 0000.0001)                 3.341968103208270E+10,      /* I = 30 */
(PID.TID 0000.0001)                 2.390126200743558E+10,      /* I = 31 */
(PID.TID 0000.0001)                 1.216690346714270E+10       /* I = 32 */
(PID.TID 0000.0001)     ;
(PID.TID 0000.0001) rAs =  /* rAs(1,:,1,:) ( units: m^2 ) */
(PID.TID 0000.0001)                 1.216690346714270E+10,      /* J =  1 */
(PID.TID 0000.0001)                 1.974052138506315E+10,      /* J =  2 */
(PID.TID 0000.0001)                 2.943712825252015E+10,      /* J =  3 */
(PID.TID 0000.0001)                 3.801790263324359E+10,      /* J =  4 */
(PID.TID 0000.0001)                 4.571243814189866E+10,      /* J =  5 */
(PID.TID 0000.0001)                 5.269930713599979E+10,      /* J =  6 */
(PID.TID 0000.0001)                 5.907428494299063E+10,      /* J =  7 */
(PID.TID 0000.0001)                 6.488320895111514E+10,      /* J =  8 */
(PID.TID 0000.0001)                 7.014205907741882E+10,      /* J =  9 */
(PID.TID 0000.0001)                 7.484854821847499E+10,      /* J = 10 */
(PID.TID 0000.0001)                 7.898934631431560E+10,      /* J = 11 */
(PID.TID 0000.0001)                 8.254500894894537E+10,      /* J = 12 */
(PID.TID 0000.0001)                 8.549360686473492E+10,      /* J = 13 */
(PID.TID 0000.0001)                 8.781353403175085E+10,      /* J = 14 */
(PID.TID 0000.0001)                 8.948571540392021E+10,      /* J = 15 */
(PID.TID 0000.0001)                 9.049530583086168E+10,      /* J = 16 */
(PID.TID 0000.0001)                 9.083293515008307E+10,      /* J = 17 */
(PID.TID 0000.0001)                 9.049530583087070E+10,      /* J = 18 */
(PID.TID 0000.0001)                 8.948571540391121E+10,      /* J = 19 */
(PID.TID 0000.0001)                 8.781353403174185E+10,      /* J = 20 */
(PID.TID 0000.0001)                 8.549360686467184E+10,      /* J = 21 */
(PID.TID 0000.0001)                 8.254500894890933E+10,      /* J = 22 */
(PID.TID 0000.0001)                 7.898934631434262E+10,      /* J = 23 */
(PID.TID 0000.0001)                 7.484854821844795E+10,      /* J = 24 */
(PID.TID 0000.0001)                 7.014205907742783E+10,      /* J = 25 */
(PID.TID 0000.0001)                 6.488320895111514E+10,      /* J = 26 */
(PID.TID 0000.0001)                 5.907428494299063E+10,      /* J = 27 */
(PID.TID 0000.0001)                 5.269930713599078E+10,      /* J = 28 */
(PID.TID 0000.0001)                 4.571243814190767E+10,      /* J = 29 */
(PID.TID 0000.0001)                 3.801790263325260E+10,      /* J = 30 */
(PID.TID 0000.0001)                 2.943712825251114E+10,      /* J = 31 */
(PID.TID 0000.0001)                 1.974052138509018E+10       /* J = 32 */
(PID.TID 0000.0001)     ;
(PID.TID 0000.0001) globalArea = /* Integrated horizontal Area (m^2) */
(PID.TID 0000.0001)                 3.638867375081598E+14
(PID.TID 0000.0001)     ;
(PID.TID 0000.0001) hasWetCSCorners = /* Domain contains CS corners (True/False) */
(PID.TID 0000.0001)                   T
(PID.TID 0000.0001)     ;
(PID.TID 0000.0001) // =======================================================
(PID.TID 0000.0001) // End of Model config. summary
(PID.TID 0000.0001) // =======================================================
(PID.TID 0000.0001) 
(PID.TID 0000.0001) == Packages configuration : Check & print summary ==
(PID.TID 0000.0001) 
(PID.TID 0000.0001) GMREDI_CHECK: #define GMREDI
(PID.TID 0000.0001) GM_AdvForm =     /* if FALSE => use SkewFlux Form */
(PID.TID 0000.0001)                   F
(PID.TID 0000.0001)     ;
(PID.TID 0000.0001) GM_InMomAsStress = /* if TRUE => apply as Eddy Stress */
(PID.TID 0000.0001)                   F
(PID.TID 0000.0001)     ;
(PID.TID 0000.0001) GM_AdvSeparate = /* Calc Bolus & Euler Adv. separately */
(PID.TID 0000.0001)                   F
(PID.TID 0000.0001)     ;
(PID.TID 0000.0001) GM_ExtraDiag =   /* Tensor Extra Diag (line 1&2) non 0 */
(PID.TID 0000.0001)                   F
(PID.TID 0000.0001)     ;
(PID.TID 0000.0001) GM_isopycK =    /* Background Isopyc. Diffusivity [m^2/s] */
(PID.TID 0000.0001)                 8.000000000000000E+02
(PID.TID 0000.0001)     ;
(PID.TID 0000.0001) GM_skewflx*K =  /* Background GM_SkewFlx Diffusivity [m^2/s] */
(PID.TID 0000.0001)                 8.000000000000000E+02
(PID.TID 0000.0001)     ;
(PID.TID 0000.0001) GM_advec*K =    /* Backg. GM-Advec(=Bolus) Diffusivity [m^2/s]*/
(PID.TID 0000.0001)                 0.000000000000000E+00
(PID.TID 0000.0001)     ;
(PID.TID 0000.0001) GM_Kmin_horiz = /* Minimum Horizontal Diffusivity [m^2/s] */
(PID.TID 0000.0001)                 5.000000000000000E+01
(PID.TID 0000.0001)     ;
(PID.TID 0000.0001) GM_Visbeck_alpha = /* Visbeck alpha coeff. [-] */
(PID.TID 0000.0001)                 0.000000000000000E+00
(PID.TID 0000.0001)     ;
(PID.TID 0000.0001) GM_Small_Number =  /* epsilon used in slope calc */
(PID.TID 0000.0001)                 9.999999999999999E-21
(PID.TID 0000.0001)     ;
(PID.TID 0000.0001) GM_slopeSqCutoff = /* Slope^2 cut-off value */
(PID.TID 0000.0001)                 1.000000000000000E+48
(PID.TID 0000.0001)     ;
(PID.TID 0000.0001) GM_taper_scheme =  /* Type of Tapering/Clipping scheme */
(PID.TID 0000.0001)               'gkw91                                   '
(PID.TID 0000.0001)     ;
(PID.TID 0000.0001) GM_maxSlope =  /* Maximum Slope (Tapering/Clipping) */
(PID.TID 0000.0001)                 1.000000000000000E-02
(PID.TID 0000.0001)     ;
(PID.TID 0000.0001) GM_facTrL2dz = /* Minimum Trans.Layer Thick. (factor of dz) */
(PID.TID 0000.0001)                 1.000000000000000E+00
(PID.TID 0000.0001)     ;
(PID.TID 0000.0001) GM_facTrL2ML = /* Max.Trans.Layer Thick. (factor of MxL Depth)*/
(PID.TID 0000.0001)                 5.000000000000000E+00
(PID.TID 0000.0001)     ;
(PID.TID 0000.0001) GM_maxTransLay = /* Maximum Transition Layer Thickness [m] */
(PID.TID 0000.0001)                 5.000000000000000E+02
(PID.TID 0000.0001)     ;
(PID.TID 0000.0001) GM_UseBVP = /* if TRUE => use bvp a la Ferrari et al. (2010) */
(PID.TID 0000.0001)                   F
(PID.TID 0000.0001)     ;
(PID.TID 0000.0001) GM_BVP_ModeNumber = /* Vertical mode number for BVP wave speed */
(PID.TID 0000.0001)                       1
(PID.TID 0000.0001)     ;
(PID.TID 0000.0001) GM_BVP_cMin = /* Minimum wave speed for BVP [m/s] */
(PID.TID 0000.0001)                 1.000000000000000E-01
(PID.TID 0000.0001)     ;
(PID.TID 0000.0001) GM_useSubMeso = /* if TRUE => use Sub-Meso param. (B.Fox-Kemper) */
(PID.TID 0000.0001)                   F
(PID.TID 0000.0001)     ;
(PID.TID 0000.0001) subMeso_Ceff = /* efficiency coeff. of Mixed-Layer Eddies [-] */
(PID.TID 0000.0001)                 7.000000000000001E-02
(PID.TID 0000.0001)     ;
(PID.TID 0000.0001) subMeso_invTau = /* inverse of Sub-Meso mixing time-scale [/s] */
(PID.TID 0000.0001)                 2.000000000000000E-06
(PID.TID 0000.0001)     ;
(PID.TID 0000.0001) subMeso_LfMin = /* minimum length-scale "Lf" [m] */
(PID.TID 0000.0001)                 1.000000000000000E+03
(PID.TID 0000.0001)     ;
(PID.TID 0000.0001) subMeso_Lmax = /* maximum grid-scale length [m] */
(PID.TID 0000.0001)                 1.100000000000000E+05
(PID.TID 0000.0001)     ;
(PID.TID 0000.0001) SEAICE_CHECK: #define ALLOW_SEAICE
(PID.TID 0000.0001) GAD_CHECK: #define ALLOW_GENERIC_ADVDIFF
(PID.TID 0000.0001) // =======================================================
(PID.TID 0000.0001) // Check Model config. (CONFIG_CHECK):
(PID.TID 0000.0001) // CONFIG_CHECK : Normal End
(PID.TID 0000.0001) // =======================================================
(PID.TID 0000.0001) 
(PID.TID 0000.0001)  MDS_READ_META: opening file: pickup.0000072000.meta
(PID.TID 0000.0001)  nRecords = 123 ; filePrec =  64 ; fileIter =     72000
(PID.TID 0000.0001)     nDims =   2 , dims:
(PID.TID 0000.0001)    1: 192   1 192
(PID.TID 0000.0001)    2:  32   1  32
(PID.TID 0000.0001)     nFlds =  11 , nFl3D =   8 , fields:
(PID.TID 0000.0001)  >Uvel    < >GuNm1   < >Vvel    < >GvNm1   < >Theta   < >GtNm1   < >Salt    < >GsNm1   < >EtaN    < >dEtaHdt < >EtaH    <
(PID.TID 0000.0001) missingVal=  1.00000000000000E+00 ; nTimRec =   0 , timeList:
(PID.TID 0000.0001) READ_MFLDS_3D_RL: read field: "Uvel    ", #   1 in fldList, rec=   1
(PID.TID 0000.0001)  MDS_READ_FIELD: opening global file: pickup.0000072000
(PID.TID 0000.0001) READ_MFLDS_3D_RL: read field: "Vvel    ", #   3 in fldList, rec=   3
(PID.TID 0000.0001)  MDS_READ_FIELD: opening global file: pickup.0000072000
(PID.TID 0000.0001) READ_MFLDS_3D_RL: read field: "Theta   ", #   5 in fldList, rec=   5
(PID.TID 0000.0001)  MDS_READ_FIELD: opening global file: pickup.0000072000
(PID.TID 0000.0001) READ_MFLDS_3D_RL: read field: "Salt    ", #   7 in fldList, rec=   7
(PID.TID 0000.0001)  MDS_READ_FIELD: opening global file: pickup.0000072000
(PID.TID 0000.0001) READ_MFLDS_3D_RL: read field: "GuNm1   ", #   2 in fldList, rec=   2
(PID.TID 0000.0001)  MDS_READ_FIELD: opening global file: pickup.0000072000
(PID.TID 0000.0001) READ_MFLDS_3D_RL: read field: "GvNm1   ", #   4 in fldList, rec=   4
(PID.TID 0000.0001)  MDS_READ_FIELD: opening global file: pickup.0000072000
(PID.TID 0000.0001) READ_MFLDS_3D_RL: read field: "GtNm1   ", #   6 in fldList, rec=   6
(PID.TID 0000.0001)  MDS_READ_FIELD: opening global file: pickup.0000072000
(PID.TID 0000.0001) READ_MFLDS_3D_RL: read field: "GsNm1   ", #   8 in fldList, rec=   8
(PID.TID 0000.0001)  MDS_READ_FIELD: opening global file: pickup.0000072000
(PID.TID 0000.0001) READ_MFLDS_3D_RL: read field: "EtaN    ", #   9 in fldList, rec= 121
(PID.TID 0000.0001)  MDS_READ_FIELD: opening global file: pickup.0000072000
(PID.TID 0000.0001) READ_MFLDS_3D_RL: read field: "dEtaHdt ", #  10 in fldList, rec= 122
(PID.TID 0000.0001)  MDS_READ_FIELD: opening global file: pickup.0000072000
(PID.TID 0000.0001) READ_MFLDS_3D_RL: read field: "EtaH    ", #  11 in fldList, rec= 123
(PID.TID 0000.0001)  MDS_READ_FIELD: opening global file: pickup.0000072000
(PID.TID 0000.0001) READ_MFLDS_CHECK: - normal end ; reset MFLDS file-name: pickup.0000072000
(PID.TID 0000.0001)  write diagnostics summary to file ioUnit:     36
Iter.Nb:     72000 ; Time(s):  6.4800000000000E+07
------------------------------------------------------------------------
2D/3D diagnostics: Number of lists:     4
------------------------------------------------------------------------
listId=    1 ; file name: surfDiag
 nFlds, nActive,       freq     &     phase        , nLev               
   10  |   10  |     43200.000000         0.000000 |   1
 levels:   1
 diag# | name   |   ipt  |  iMate | kLev|   count |   mate.C|           
    86 |oceQnet |      1 |      0 |   1 |       0 |
    87 |oceQsw  |      2 |      0 |   1 |       0 |
    84 |oceFWflx|      3 |      0 |   1 |       0 |
    85 |oceSflux|      4 |      0 |   1 |       0 |
    80 |oceTAUX |      5 |      6 |   1 |       0 |       0 |
    81 |oceTAUY |      6 |      5 |   1 |       0 |       0 |
    26 |THETA   |      7 |      0 |  15 |       0 |
    27 |SALT    |     22 |      0 |  15 |       0 |
    30 |UVEL    |     37 |     52 |  15 |       0 |       0 |
    31 |VVEL    |     52 |     37 |  15 |       0 |       0 |
------------------------------------------------------------------------
listId=    2 ; file name: iceDiag
 nFlds, nActive,       freq     &     phase        , nLev               
    8  |    8  |     43200.000000         0.000000 |   1
 levels:   1
 diag# | name   |   ipt  |  iMate | kLev|   count |   mate.C|           
   211 |SIarea  |     67 |      0 |   1 |       0 |
   214 |SIheff  |     68 |      0 |   1 |       0 |
   216 |SIhsnow |     69 |      0 |   1 |       0 |
    83 |sIceLoad|     70 |      0 |   1 |       0 |
   220 |SIuice  |     71 |     72 |   1 |       0 |       0 |
   221 |SIvice  |     72 |     71 |   1 |       0 |       0 |
   222 |SItaux  |     73 |     74 |   1 |       0 |       0 |
   223 |SItauy  |     74 |     73 |   1 |       0 |       0 |
------------------------------------------------------------------------
listId=    3 ; file name: iceInst
 nFlds, nActive,       freq     &     phase        , nLev               
    9  |    9  |     -3600.000000         0.000000 |   1
 levels:   1
 diag# | name   |   ipt  |  iMate | kLev|   count |   mate.C|           
   211 |SIarea  |     75 |      0 |   1 |       0 |
   214 |SIheff  |     76 |      0 |   1 |       0 |
   216 |SIhsnow |     77 |      0 |   1 |       0 |
    83 |sIceLoad|     78 |      0 |   1 |       0 |
   220 |SIuice  |     79 |     80 |   1 |       0 |       0 |
   221 |SIvice  |     80 |     79 |   1 |       0 |       0 |
   222 |SItaux  |     81 |     82 |   1 |       0 |       0 |
   223 |SItauy  |     82 |     81 |   1 |       0 |       0 |
     1 |SDIAG1  |     83 |      0 |   1 |       0 |
------------------------------------------------------------------------
listId=    4 ; file name: iceNcat
 nFlds, nActive,       freq     &     phase        , nLev               
    3  |    3  |     -3600.000000         0.000000 |   5
 levels:   1   2   3   4   5
 diag# | name   |   ipt  |  iMate | kLev|   count |   mate.C|           
   282 |SIareaN |     84 |      0 |   5 |       0 |
   281 |SIheffN |     89 |      0 |   5 |       0 |
   283 |SIhsnowN|     94 |      0 |   5 |       0 |
------------------------------------------------------------------------
Global & Regional Statistics diagnostics: Number of lists:     1
------------------------------------------------------------------------
listId=   1 ; file name: iceStDiag
 nFlds, nActive,       freq     &     phase        |                    
    8  |    8  |      3600.000000         0.000000 |
 Regions:   0
 diag# | name   |   ipt  |  iMate |    Volume   |   mate-Vol. |         
   211 |SIarea  |      1 |      0 | 0.00000E+00 |
   214 |SIheff  |      2 |      0 | 0.00000E+00 |
   216 |SIhsnow |      3 |      0 | 0.00000E+00 |
    83 |sIceLoad|      4 |      0 | 0.00000E+00 |
   220 |SIuice  |      5 |      0 | 0.00000E+00 |
   221 |SIvice  |      6 |      0 | 0.00000E+00 |
   222 |SItaux  |      7 |      0 | 0.00000E+00 |
   223 |SItauy  |      8 |      0 | 0.00000E+00 |
------------------------------------------------------------------------
(PID.TID 0000.0001)  MDS_READ_META: opening file: pickup_seaice.0000072000.meta
(PID.TID 0000.0001)  nRecords =  15 ; filePrec =  64 ; fileIter =     72000
(PID.TID 0000.0001)     nDims =   2 , dims:
(PID.TID 0000.0001)    1: 192   1 192
(PID.TID 0000.0001)    2:  32   1  32
(PID.TID 0000.0001)     nFlds =  15 , nFl3D =   0 , fields:
(PID.TID 0000.0001)  >siTICE  < >siYNEG  < >siHSNOW < >siUICE  < >siUICE_2< >siUICE_3< >siVICE  < >siVICE_2< >siVICE_3< >siHEFF  < >siHEFF_2< >siHEFF_3< >siAREA  < >siAREA_2< >siAREA_3<
(PID.TID 0000.0001) missingVal=  1.00000000000000E+00 ; nTimRec =   0 , timeList:
(PID.TID 0000.0001) READ_MFLDS_3D_RL: field: "siTICES " missing in file: pickup_seaice.0000072000
(PID.TID 0000.0001) READ_MFLDS_LEV_RL: read field: "siTICE  ", #   1 in fldList, rec=   1
(PID.TID 0000.0001)  MDS_READ_FIELD: opening global file: pickup_seaice.0000072000
(PID.TID 0000.0001) READ_MFLDS_3D_RL: field: "siAREAn " missing in file: pickup_seaice.0000072000
(PID.TID 0000.0001) READ_MFLDS_3D_RL: read field: "siAREA  ", #  13 in fldList, rec=  13
(PID.TID 0000.0001)  MDS_READ_FIELD: opening global file: pickup_seaice.0000072000
(PID.TID 0000.0001) READ_MFLDS_3D_RL: read field: "siHEFF  ", #  10 in fldList, rec=  10
(PID.TID 0000.0001)  MDS_READ_FIELD: opening global file: pickup_seaice.0000072000
(PID.TID 0000.0001) READ_MFLDS_3D_RL: read field: "siHSNOW ", #   3 in fldList, rec=   3
(PID.TID 0000.0001)  MDS_READ_FIELD: opening global file: pickup_seaice.0000072000
(PID.TID 0000.0001) READ_MFLDS_3D_RL: read field: "siUICE  ", #   4 in fldList, rec=   4
(PID.TID 0000.0001)  MDS_READ_FIELD: opening global file: pickup_seaice.0000072000
(PID.TID 0000.0001) READ_MFLDS_3D_RL: read field: "siVICE  ", #   7 in fldList, rec=   7
(PID.TID 0000.0001)  MDS_READ_FIELD: opening global file: pickup_seaice.0000072000
(PID.TID 0000.0001) // =======================================================
(PID.TID 0000.0001) // Model current state
(PID.TID 0000.0001) // =======================================================
(PID.TID 0000.0001) 
(PID.TID 0000.0001) // =======================================================
(PID.TID 0000.0001) // Begin MONITOR dynamic field statistics
(PID.TID 0000.0001) // =======================================================
(PID.TID 0000.0001) %MON time_tsnumber                =                 72000
(PID.TID 0000.0001) %MON time_secondsf                =   6.4800000000000E+07
(PID.TID 0000.0001) %MON dynstat_eta_max              =   9.2249308874653E-01
(PID.TID 0000.0001) %MON dynstat_eta_min              =  -1.6181619580030E+00
(PID.TID 0000.0001) %MON dynstat_eta_mean             =   1.4427566214562E-14
(PID.TID 0000.0001) %MON dynstat_eta_sd               =   5.9907976973986E-01
(PID.TID 0000.0001) %MON dynstat_eta_del2             =   7.8581345364806E-04
(PID.TID 0000.0001) %MON dynstat_uvel_max             =   1.8639442347386E-01
(PID.TID 0000.0001) %MON dynstat_uvel_min             =  -2.8803502100767E-01
(PID.TID 0000.0001) %MON dynstat_uvel_mean            =  -4.8914430325890E-04
(PID.TID 0000.0001) %MON dynstat_uvel_sd              =   1.2021379389426E-02
(PID.TID 0000.0001) %MON dynstat_uvel_del2            =   5.1214215649781E-05
(PID.TID 0000.0001) %MON dynstat_vvel_max             =   1.7346247050018E-01
(PID.TID 0000.0001) %MON dynstat_vvel_min             =  -2.2519444280963E-01
(PID.TID 0000.0001) %MON dynstat_vvel_mean            =  -4.0398186384005E-04
(PID.TID 0000.0001) %MON dynstat_vvel_sd              =   1.2638380334010E-02
(PID.TID 0000.0001) %MON dynstat_vvel_del2            =   5.0639130168720E-05
(PID.TID 0000.0001) %MON dynstat_wvel_max             =   1.0315548206230E-04
(PID.TID 0000.0001) %MON dynstat_wvel_min             =  -2.0412092606640E-04
(PID.TID 0000.0001) %MON dynstat_wvel_mean            =   1.3594270097552E-10
(PID.TID 0000.0001) %MON dynstat_wvel_sd              =   3.8382293649569E-06
(PID.TID 0000.0001) %MON dynstat_wvel_del2            =   2.6457320450043E-08
(PID.TID 0000.0001) %MON dynstat_theta_max            =   3.0925958904704E+01
(PID.TID 0000.0001) %MON dynstat_theta_min            =  -3.0175293673864E+00
(PID.TID 0000.0001) %MON dynstat_theta_mean           =   3.9091304559860E+00
(PID.TID 0000.0001) %MON dynstat_theta_sd             =   4.5711443147581E+00
(PID.TID 0000.0001) %MON dynstat_theta_del2           =   2.6590891135791E-03
(PID.TID 0000.0001) %MON dynstat_salt_max             =   4.1386265990462E+01
(PID.TID 0000.0001) %MON dynstat_salt_min             =   1.8383410676806E+01
(PID.TID 0000.0001) %MON dynstat_salt_mean            =   3.4772068623474E+01
(PID.TID 0000.0001) %MON dynstat_salt_sd              =   5.3145226117181E-01
(PID.TID 0000.0001) %MON dynstat_salt_del2            =   8.0693627005698E-04
(PID.TID 0000.0001) %MON dynstat_sst_max              =   3.0925958904704E+01
(PID.TID 0000.0001) %MON dynstat_sst_min              =  -1.9648692042086E+00
(PID.TID 0000.0001) %MON dynstat_sst_mean             =   1.8113137824165E+01
(PID.TID 0000.0001) %MON dynstat_sst_sd               =   9.7982972159706E+00
(PID.TID 0000.0001) %MON dynstat_sst_del2             =   1.5454157826167E-02
(PID.TID 0000.0001) %MON dynstat_sss_max              =   4.1386265990462E+01
(PID.TID 0000.0001) %MON dynstat_sss_min              =   1.8383410676806E+01
(PID.TID 0000.0001) %MON dynstat_sss_mean             =   3.4632078412677E+01
(PID.TID 0000.0001) %MON dynstat_sss_sd               =   1.4684189495322E+00
(PID.TID 0000.0001) %MON dynstat_sss_del2             =   8.0812048509615E-03
(PID.TID 0000.0001) %MON forcing_qnet_max             =   0.0000000000000E+00
(PID.TID 0000.0001) %MON forcing_qnet_min             =   0.0000000000000E+00
(PID.TID 0000.0001) %MON forcing_qnet_mean            =   0.0000000000000E+00
(PID.TID 0000.0001) %MON forcing_qnet_sd              =   0.0000000000000E+00
(PID.TID 0000.0001) %MON forcing_qnet_del2            =   0.0000000000000E+00
(PID.TID 0000.0001) %MON forcing_qsw_max              =   0.0000000000000E+00
(PID.TID 0000.0001) %MON forcing_qsw_min              =   0.0000000000000E+00
(PID.TID 0000.0001) %MON forcing_qsw_mean             =   0.0000000000000E+00
(PID.TID 0000.0001) %MON forcing_qsw_sd               =   0.0000000000000E+00
(PID.TID 0000.0001) %MON forcing_qsw_del2             =   0.0000000000000E+00
(PID.TID 0000.0001) %MON forcing_empmr_max            =   0.0000000000000E+00
(PID.TID 0000.0001) %MON forcing_empmr_min            =   0.0000000000000E+00
(PID.TID 0000.0001) %MON forcing_empmr_mean           =   0.0000000000000E+00
(PID.TID 0000.0001) %MON forcing_empmr_sd             =   0.0000000000000E+00
(PID.TID 0000.0001) %MON forcing_empmr_del2           =   0.0000000000000E+00
(PID.TID 0000.0001) %MON forcing_fu_max               =   0.0000000000000E+00
(PID.TID 0000.0001) %MON forcing_fu_min               =   0.0000000000000E+00
(PID.TID 0000.0001) %MON forcing_fu_mean              =   0.0000000000000E+00
(PID.TID 0000.0001) %MON forcing_fu_sd                =   0.0000000000000E+00
(PID.TID 0000.0001) %MON forcing_fu_del2              =   0.0000000000000E+00
(PID.TID 0000.0001) %MON forcing_fv_max               =   0.0000000000000E+00
(PID.TID 0000.0001) %MON forcing_fv_min               =   0.0000000000000E+00
(PID.TID 0000.0001) %MON forcing_fv_mean              =   0.0000000000000E+00
(PID.TID 0000.0001) %MON forcing_fv_sd                =   0.0000000000000E+00
(PID.TID 0000.0001) %MON forcing_fv_del2              =   0.0000000000000E+00
(PID.TID 0000.0001) %MON trAdv_CFL_u_max              =   0.0000000000000E+00
(PID.TID 0000.0001) %MON trAdv_CFL_v_max              =   0.0000000000000E+00
(PID.TID 0000.0001) %MON trAdv_CFL_w_max              =   0.0000000000000E+00
(PID.TID 0000.0001) %MON advcfl_uvel_max              =   8.5096037087284E-04
(PID.TID 0000.0001) %MON advcfl_vvel_max              =   7.8760257411030E-04
(PID.TID 0000.0001) %MON advcfl_wvel_max              =   6.9324088098023E-04
(PID.TID 0000.0001) %MON advcfl_W_hf_max              =   7.6573916672744E-04
(PID.TID 0000.0001) %MON pe_b_mean                    =   4.7811655460464E-04
(PID.TID 0000.0001) %MON ke_max                       =   4.0700637549387E-02
(PID.TID 0000.0001) %MON ke_mean                      =   1.4067882101803E-04
(PID.TID 0000.0001) %MON ke_vol                       =   1.3398024453628E+18
(PID.TID 0000.0001) %MON vort_r_min                   =  -1.1843904755479E-06
(PID.TID 0000.0001) %MON vort_r_max                   =   1.2148454936551E-06
(PID.TID 0000.0001) %MON vort_a_mean                  =  -2.0549865324846E-05
(PID.TID 0000.0001) %MON vort_a_sd                    =   7.5259517155846E-05
(PID.TID 0000.0001) %MON vort_p_mean                  =  -2.4783469227166E-05
(PID.TID 0000.0001) %MON vort_p_sd                    =   1.2812074522595E-04
(PID.TID 0000.0001) %MON surfExpan_theta_mean         =  -3.8378290301302E-07
(PID.TID 0000.0001) %MON surfExpan_salt_mean          =  -1.6258537219558E-07
(PID.TID 0000.0001) // =======================================================
(PID.TID 0000.0001) // End MONITOR dynamic field statistics
(PID.TID 0000.0001) // =======================================================
(PID.TID 0000.0001) // =======================================================
(PID.TID 0000.0001) // Begin MONITOR SEAICE statistics
(PID.TID 0000.0001) // =======================================================
(PID.TID 0000.0001) %MON seaice_tsnumber              =                 72000
(PID.TID 0000.0001) %MON seaice_time_sec              =   6.4800000000000E+07
(PID.TID 0000.0001) %MON seaice_uice_max              =   4.0000000000000E-01
(PID.TID 0000.0001) %MON seaice_uice_min              =  -4.0000000000000E-01
(PID.TID 0000.0001) %MON seaice_uice_mean             =  -1.4584960473672E-02
(PID.TID 0000.0001) %MON seaice_uice_sd               =   1.4252324186947E-01
(PID.TID 0000.0001) %MON seaice_uice_del2             =   7.2720843677207E-04
(PID.TID 0000.0001) %MON seaice_vice_max              =   3.7441285697502E-01
(PID.TID 0000.0001) %MON seaice_vice_min              =  -4.0000000000000E-01
(PID.TID 0000.0001) %MON seaice_vice_mean             =  -3.7542841261047E-02
(PID.TID 0000.0001) %MON seaice_vice_sd               =   1.5635165386930E-01
(PID.TID 0000.0001) %MON seaice_vice_del2             =   7.0861834440520E-04
(PID.TID 0000.0001) %MON seaice_area_max              =   1.0000000000000E+00
(PID.TID 0000.0001) %MON seaice_area_min              =   0.0000000000000E+00
(PID.TID 0000.0001) %MON seaice_area_mean             =   4.7593115319309E-02
(PID.TID 0000.0001) %MON seaice_area_sd               =   1.9132919249415E-01
(PID.TID 0000.0001) %MON seaice_area_del2             =   1.7116012833979E-03
(PID.TID 0000.0001) %MON seaice_heff_max              =   5.2000132254738E+00
(PID.TID 0000.0001) %MON seaice_heff_min              =   0.0000000000000E+00
(PID.TID 0000.0001) %MON seaice_heff_mean             =   8.4334854083991E-02
(PID.TID 0000.0001) %MON seaice_heff_sd               =   3.9995427486652E-01
(PID.TID 0000.0001) %MON seaice_heff_del2             =   2.4797179641400E-03
(PID.TID 0000.0001) %MON seaice_hsnow_max             =   0.0000000000000E+00
(PID.TID 0000.0001) %MON seaice_hsnow_min             =   0.0000000000000E+00
(PID.TID 0000.0001) %MON seaice_hsnow_mean            =   0.0000000000000E+00
(PID.TID 0000.0001) %MON seaice_hsnow_sd              =   0.0000000000000E+00
(PID.TID 0000.0001) %MON seaice_hsnow_del2            =   0.0000000000000E+00
(PID.TID 0000.0001) // =======================================================
(PID.TID 0000.0001) // End MONITOR SEAICE statistics
(PID.TID 0000.0001) // =======================================================
 SEAICE_LSR: Residual Initial ipass,Uice,Vice=    1  1.32697496E-01  1.53973466E-01
 SEAICE_LSR (ipass=   1) iters,dU,Resid=     8  3.56812990E-06  1.41041823E-06
 SEAICE_LSR (ipass=   1) iters,dV,Resid=     8  9.56026062E-06  2.25950028E-06
 SEAICE_LSR: Residual Initial ipass,Uice,Vice=    2  3.58212441E-02  4.35877559E-02
 SEAICE_LSR (ipass=   2) iters,dU,Resid=     6  4.41948727E-05  1.14850848E-05
 SEAICE_LSR (ipass=   2) iters,dV,Resid=     6  6.48873269E-05  1.80004836E-05
(PID.TID 0000.0001) SOLVE_FOR_PRESSURE: putPmEinXvector =    F
 cg2d: Sum(rhs),rhsMax =  -4.15127049101277E+00  1.71157429113533E+02
(PID.TID 0000.0001)      cg2d_init_res =   1.82627584985785E+00
(PID.TID 0000.0001)      cg2d_iters(min,last) =      -1       9
(PID.TID 0000.0001)      cg2d_last_res =   5.39591347856386E-08
(PID.TID 0000.0001) // =======================================================
(PID.TID 0000.0001) // Begin MONITOR dynamic field statistics
(PID.TID 0000.0001) // =======================================================
(PID.TID 0000.0001) %MON time_tsnumber                =                 72001
(PID.TID 0000.0001) %MON time_secondsf                =   6.4800900000000E+07
(PID.TID 0000.0001) %MON dynstat_eta_max              =   8.2753244725891E+00
(PID.TID 0000.0001) %MON dynstat_eta_min              =  -1.7013079549583E+00
(PID.TID 0000.0001) %MON dynstat_eta_mean             =   8.2561573251141E-03
(PID.TID 0000.0001) %MON dynstat_eta_sd               =   6.4410930776039E-01
(PID.TID 0000.0001) %MON dynstat_eta_del2             =   7.8581003991684E-03
(PID.TID 0000.0001) %MON dynstat_uvel_max             =   3.2763422327326E-01
(PID.TID 0000.0001) %MON dynstat_uvel_min             =  -2.8705232110233E-01
(PID.TID 0000.0001) %MON dynstat_uvel_mean            =  -4.7496581086018E-04
(PID.TID 0000.0001) %MON dynstat_uvel_sd              =   1.2102415384033E-02
(PID.TID 0000.0001) %MON dynstat_uvel_del2            =   5.7501563897712E-05
(PID.TID 0000.0001) %MON dynstat_vvel_max             =   2.5891755565154E-01
(PID.TID 0000.0001) %MON dynstat_vvel_min             =  -2.6145120236645E-01
(PID.TID 0000.0001) %MON dynstat_vvel_mean            =  -3.9526202934472E-04
(PID.TID 0000.0001) %MON dynstat_vvel_sd              =   1.2717102191172E-02
(PID.TID 0000.0001) %MON dynstat_vvel_del2            =   6.3785276218826E-05
(PID.TID 0000.0001) %MON dynstat_wvel_max             =   1.2092768858020E-03
(PID.TID 0000.0001) %MON dynstat_wvel_min             =  -9.5244762402226E-03
(PID.TID 0000.0001) %MON dynstat_wvel_mean            =  -1.9690114887200E-07
(PID.TID 0000.0001) %MON dynstat_wvel_sd              =   3.1998761157306E-05
(PID.TID 0000.0001) %MON dynstat_wvel_del2            =   7.8903315837053E-07
(PID.TID 0000.0001) %MON dynstat_theta_max            =   3.0925747382659E+01
(PID.TID 0000.0001) %MON dynstat_theta_min            =  -3.0174062027795E+00
(PID.TID 0000.0001) %MON dynstat_theta_mean           =   3.9089251878683E+00
(PID.TID 0000.0001) %MON dynstat_theta_sd             =   4.5705939008007E+00
(PID.TID 0000.0001) %MON dynstat_theta_del2           =   2.6551381309461E-03
(PID.TID 0000.0001) %MON dynstat_salt_max             =   4.1379252577003E+01
(PID.TID 0000.0001) %MON dynstat_salt_min             =   1.8518388103661E+01
(PID.TID 0000.0001) %MON dynstat_salt_mean            =   3.4772204715236E+01
(PID.TID 0000.0001) %MON dynstat_salt_sd              =   5.3093678594508E-01
(PID.TID 0000.0001) %MON dynstat_salt_del2            =   8.0227878963819E-04
(PID.TID 0000.0001) %MON dynstat_sst_max              =   3.0925747382659E+01
(PID.TID 0000.0001) %MON dynstat_sst_min              =  -1.9550835763979E+00
(PID.TID 0000.0001) %MON dynstat_sst_mean             =   1.8098576339913E+01
(PID.TID 0000.0001) %MON dynstat_sst_sd               =   9.8011863862722E+00
(PID.TID 0000.0001) %MON dynstat_sst_del2             =   1.5369683604698E-02
(PID.TID 0000.0001) %MON dynstat_sss_max              =   4.1379252577003E+01
(PID.TID 0000.0001) %MON dynstat_sss_min              =   1.8738343205356E+01
(PID.TID 0000.0001) %MON dynstat_sss_mean             =   3.4642173193416E+01
(PID.TID 0000.0001) %MON dynstat_sss_sd               =   1.4555462196129E+00
(PID.TID 0000.0001) %MON dynstat_sss_del2             =   8.0099761406266E-03
(PID.TID 0000.0001) %MON forcing_qnet_max             =   3.7691018750000E+05
(PID.TID 0000.0001) %MON forcing_qnet_min             =  -8.4035984375000E+04
(PID.TID 0000.0001) %MON forcing_qnet_mean            =   3.5056258596059E+03
(PID.TID 0000.0001) %MON forcing_qnet_sd              =   1.3698840942108E+04
(PID.TID 0000.0001) %MON forcing_qnet_del2            =   3.3651521607977E+02
(PID.TID 0000.0001) %MON forcing_qsw_max              =   0.0000000000000E+00
(PID.TID 0000.0001) %MON forcing_qsw_min              =   0.0000000000000E+00
(PID.TID 0000.0001) %MON forcing_qsw_mean             =   0.0000000000000E+00
(PID.TID 0000.0001) %MON forcing_qsw_sd               =   0.0000000000000E+00
(PID.TID 0000.0001) %MON forcing_qsw_del2             =   0.0000000000000E+00
(PID.TID 0000.0001) %MON forcing_empmr_max            =   1.2516015768051E+00
(PID.TID 0000.0001) %MON forcing_empmr_min            =  -9.8578329086304E+00
(PID.TID 0000.0001) %MON forcing_empmr_mean           =  -9.4945809238653E-03
(PID.TID 0000.0001) %MON forcing_empmr_sd             =   2.8328329890935E-01
(PID.TID 0000.0001) %MON forcing_empmr_del2           =   9.3906174927238E-03
(PID.TID 0000.0001) %MON forcing_fu_max               =   5.0392189918545E-01
(PID.TID 0000.0001) %MON forcing_fu_min               =  -4.7699482610216E-01
(PID.TID 0000.0001) %MON forcing_fu_mean              =  -5.5711451408646E-03
(PID.TID 0000.0001) %MON forcing_fu_sd                =   7.3476106002901E-02
(PID.TID 0000.0001) %MON forcing_fu_del2              =   7.3868189342389E-04
(PID.TID 0000.0001) %MON forcing_fv_max               =   2.7800018649626E-01
(PID.TID 0000.0001) %MON forcing_fv_min               =  -5.2741249452058E-01
(PID.TID 0000.0001) %MON forcing_fv_mean              =  -1.4702749960309E-02
(PID.TID 0000.0001) %MON forcing_fv_sd                =   6.9016368381583E-02
(PID.TID 0000.0001) %MON forcing_fv_del2              =   6.1298215387221E-04
(PID.TID 0000.0001) %MON trAdv_CFL_u_max              =   1.1280671898362E-03
(PID.TID 0000.0001) %MON trAdv_CFL_v_max              =   1.5079035956044E-03
(PID.TID 0000.0001) %MON trAdv_CFL_w_max              =   1.0966523546169E-01
(PID.TID 0000.0001) %MON advcfl_uvel_max              =   1.1495867962243E-03
(PID.TID 0000.0001) %MON advcfl_vvel_max              =   8.4494242951109E-04
(PID.TID 0000.0001) %MON advcfl_wvel_max              =   3.4288114464801E-01
(PID.TID 0000.0001) %MON advcfl_W_hf_max              =   1.1442962541430E-01
(PID.TID 0000.0001) %MON pe_b_mean                    =   5.5278337289115E-04
(PID.TID 0000.0001) %MON ke_max                       =   5.0286487224107E-02
(PID.TID 0000.0001) %MON ke_mean                      =   1.4249306630900E-04
(PID.TID 0000.0001) %MON ke_vol                       =   1.3398024453628E+18
(PID.TID 0000.0001) %MON vort_r_min                   =  -1.1879226313605E-06
(PID.TID 0000.0001) %MON vort_r_max                   =   1.2254811260238E-06
(PID.TID 0000.0001) %MON vort_a_mean                  =  -2.0549865324846E-05
(PID.TID 0000.0001) %MON vort_a_sd                    =   7.5259518451189E-05
(PID.TID 0000.0001) %MON vort_p_mean                  =  -2.4783469220072E-05
(PID.TID 0000.0001) %MON vort_p_sd                    =   1.2812073553352E-04
(PID.TID 0000.0001) %MON surfExpan_theta_mean         =  -3.9257278757013E-07
(PID.TID 0000.0001) %MON surfExpan_salt_mean          =   9.7058149764682E-07
(PID.TID 0000.0001) // =======================================================
(PID.TID 0000.0001) // End MONITOR dynamic field statistics
(PID.TID 0000.0001) // =======================================================
(PID.TID 0000.0001) // =======================================================
(PID.TID 0000.0001) // Begin MONITOR SEAICE statistics
(PID.TID 0000.0001) // =======================================================
(PID.TID 0000.0001) %MON seaice_tsnumber              =                 72001
(PID.TID 0000.0001) %MON seaice_time_sec              =   6.4800900000000E+07
(PID.TID 0000.0001) %MON seaice_uice_max              =   2.3634022534131E-01
(PID.TID 0000.0001) %MON seaice_uice_min              =  -2.8803502188239E-01
(PID.TID 0000.0001) %MON seaice_uice_mean             =  -6.7273709797994E-03
(PID.TID 0000.0001) %MON seaice_uice_sd               =   5.4374830949525E-02
(PID.TID 0000.0001) %MON seaice_uice_del2             =   6.0957664304774E-04
(PID.TID 0000.0001) %MON seaice_vice_max              =   3.1620355757488E-01
(PID.TID 0000.0001) %MON seaice_vice_min              =  -3.3321352545449E-01
(PID.TID 0000.0001) %MON seaice_vice_mean             =  -9.4072389323511E-03
(PID.TID 0000.0001) %MON seaice_vice_sd               =   5.7731698561955E-02
(PID.TID 0000.0001) %MON seaice_vice_del2             =   6.2996298349088E-04
(PID.TID 0000.0001) %MON seaice_area_max              =   1.0000000000000E+00
(PID.TID 0000.0001) %MON seaice_area_min              =   0.0000000000000E+00
(PID.TID 0000.0001) %MON seaice_area_mean             =   6.8671618611380E-02
(PID.TID 0000.0001) %MON seaice_area_sd               =   2.3594115482584E-01
(PID.TID 0000.0001) %MON seaice_area_del2             =   1.8050061347340E-03
(PID.TID 0000.0001) %MON seaice_heff_max              =   8.4355192657561E+00
(PID.TID 0000.0001) %MON seaice_heff_min              =   0.0000000000000E+00
(PID.TID 0000.0001) %MON seaice_heff_mean             =   2.0562761575924E-01
(PID.TID 0000.0001) %MON seaice_heff_sd               =   9.7632265734059E-01
(PID.TID 0000.0001) %MON seaice_heff_del2             =   6.2261143167904E-03
(PID.TID 0000.0001) %MON seaice_hsnow_max             =   2.0309983436391E+00
(PID.TID 0000.0001) %MON seaice_hsnow_min             =   0.0000000000000E+00
(PID.TID 0000.0001) %MON seaice_hsnow_mean            =   2.2781594984435E-02
(PID.TID 0000.0001) %MON seaice_hsnow_sd              =   1.1957003397863E-01
(PID.TID 0000.0001) %MON seaice_hsnow_del2            =   1.4653630102622E-03
(PID.TID 0000.0001) // =======================================================
(PID.TID 0000.0001) // End MONITOR SEAICE statistics
(PID.TID 0000.0001) // =======================================================
 Computing Diagnostic #    211  SIarea       Counter:       1   Parms: SM      M1      
 Computing Diagnostic #    214  SIheff       Counter:       1   Parms: SM      M1      
 Computing Diagnostic #    216  SIhsnow      Counter:       1   Parms: SM      M1      
 Computing Diagnostic #     83  sIceLoad     Counter:       1   Parms: SM      U1      
 Computing Diagnostic #    220  SIuice       Counter:       1   Parms: UU      M1      
           Vector  Mate for  SIuice       Diagnostic #    221  SIvice   exists 
 Computing Diagnostic #    221  SIvice       Counter:       1   Parms: VV      M1      
           Vector  Mate for  SIvice       Diagnostic #    220  SIuice   exists 
 Computing Diagnostic #    222  SItaux       Counter:       1   Parms: UU      U1      
           Vector  Mate for  SItaux       Diagnostic #    223  SItauy   exists 
 Computing Diagnostic #    223  SItauy       Counter:       1   Parms: VV      U1      
           Vector  Mate for  SItauy       Diagnostic #    222  SItaux   exists 
 Computing Diagnostic #      1  SDIAG1       Counter:       1   Parms: SM      L1      
 Computing Diagnostic #    282  SIareaN      Counter:       1   Parms: SM      MX      
 Computing Diagnostic #    281  SIheffN      Counter:       1   Parms: SM      MX      
 Computing Diagnostic #    283  SIhsnowN     Counter:       1   Parms: SM      MX      
 SEAICE_LSR: Residual Initial ipass,Uice,Vice=    1  2.50391442E-02  2.94890572E-02
 SEAICE_LSR (ipass=   1) iters,dU,Resid=     8  2.43184906E-05  5.08986262E-06
 SEAICE_LSR (ipass=   1) iters,dV,Resid=     8  5.07364087E-05  1.43644916E-05
 SEAICE_LSR: Residual Initial ipass,Uice,Vice=    2  2.11273848E-02  1.64234633E-02
 SEAICE_LSR (ipass=   2) iters,dU,Resid=     8  7.44697209E-06  2.58953442E-06
 SEAICE_LSR (ipass=   2) iters,dV,Resid=     8  2.41854885E-05  6.35381135E-06
 cg2d: Sum(rhs),rhsMax =  -4.48997094700827E+00  1.77239126919018E+02
(PID.TID 0000.0001)      cg2d_init_res =   1.49769196915786E-01
(PID.TID 0000.0001)      cg2d_iters(min,last) =      -1       9
(PID.TID 0000.0001)      cg2d_last_res =   4.10176259358359E-08
(PID.TID 0000.0001) // =======================================================
(PID.TID 0000.0001) // Begin MONITOR dynamic field statistics
(PID.TID 0000.0001) // =======================================================
(PID.TID 0000.0001) %MON time_tsnumber                =                 72002
(PID.TID 0000.0001) %MON time_secondsf                =   6.4801800000000E+07
(PID.TID 0000.0001) %MON dynstat_eta_max              =   8.2923996805946E+00
(PID.TID 0000.0001) %MON dynstat_eta_min              =  -1.6611613194144E+00
(PID.TID 0000.0001) %MON dynstat_eta_mean             =   9.2470734253189E-03
(PID.TID 0000.0001) %MON dynstat_eta_sd               =   6.4477102404921E-01
(PID.TID 0000.0001) %MON dynstat_eta_del2             =   7.7938039011985E-03
(PID.TID 0000.0001) %MON dynstat_uvel_max             =   5.7139183816616E-01
(PID.TID 0000.0001) %MON dynstat_uvel_min             =  -3.7374632805633E-01
(PID.TID 0000.0001) %MON dynstat_uvel_mean            =  -4.5491722161933E-04
(PID.TID 0000.0001) %MON dynstat_uvel_sd              =   1.2337796694719E-02
(PID.TID 0000.0001) %MON dynstat_uvel_del2            =   7.2187933055991E-05
(PID.TID 0000.0001) %MON dynstat_vvel_max             =   4.9621727826088E-01
(PID.TID 0000.0001) %MON dynstat_vvel_min             =  -4.9670063095186E-01
(PID.TID 0000.0001) %MON dynstat_vvel_mean            =  -3.8714358906405E-04
(PID.TID 0000.0001) %MON dynstat_vvel_sd              =   1.2950763167464E-02
(PID.TID 0000.0001) %MON dynstat_vvel_del2            =   9.1295327576967E-05
(PID.TID 0000.0001) %MON dynstat_wvel_max             =   1.0346872118559E-04
(PID.TID 0000.0001) %MON dynstat_wvel_min             =  -9.6356765083645E-04
(PID.TID 0000.0001) %MON dynstat_wvel_mean            =  -1.7081769863749E-07
(PID.TID 0000.0001) %MON dynstat_wvel_sd              =   8.6985869889888E-06
(PID.TID 0000.0001) %MON dynstat_wvel_del2            =   1.0410047997394E-07
(PID.TID 0000.0001) %MON dynstat_theta_max            =   3.0925531634201E+01
(PID.TID 0000.0001) %MON dynstat_theta_min            =  -3.0169870926936E+00
(PID.TID 0000.0001) %MON dynstat_theta_mean           =   3.9089289174534E+00
(PID.TID 0000.0001) %MON dynstat_theta_sd             =   4.5706074209410E+00
(PID.TID 0000.0001) %MON dynstat_theta_del2           =   2.6550839705751E-03
(PID.TID 0000.0001) %MON dynstat_salt_max             =   4.1377063719965E+01
(PID.TID 0000.0001) %MON dynstat_salt_min             =   1.8518393949489E+01
(PID.TID 0000.0001) %MON dynstat_salt_mean            =   3.4772194136522E+01
(PID.TID 0000.0001) %MON dynstat_salt_sd              =   5.3093685765017E-01
(PID.TID 0000.0001) %MON dynstat_salt_del2            =   8.0273191569482E-04
(PID.TID 0000.0001) %MON dynstat_sst_max              =   3.0925531634201E+01
(PID.TID 0000.0001) %MON dynstat_sst_min              =  -1.9499013907903E+00
(PID.TID 0000.0001) %MON dynstat_sst_mean             =   1.8098857857523E+01
(PID.TID 0000.0001) %MON dynstat_sst_sd               =   9.8013243775824E+00
(PID.TID 0000.0001) %MON dynstat_sst_del2             =   1.5348191428405E-02
(PID.TID 0000.0001) %MON dynstat_sss_max              =   4.1377063719965E+01
(PID.TID 0000.0001) %MON dynstat_sss_min              =   1.8752704687268E+01
(PID.TID 0000.0001) %MON dynstat_sss_mean             =   3.4641724230956E+01
(PID.TID 0000.0001) %MON dynstat_sss_sd               =   1.4568694327368E+00
(PID.TID 0000.0001) %MON dynstat_sss_del2             =   8.0134144334673E-03
(PID.TID 0000.0001) %MON forcing_qnet_max             =   5.7765531250000E+04
(PID.TID 0000.0001) %MON forcing_qnet_min             =  -2.5628341796875E+04
(PID.TID 0000.0001) %MON forcing_qnet_mean            =  -1.2046911769087E+02
(PID.TID 0000.0001) %MON forcing_qnet_sd              =   1.9846063511910E+03
(PID.TID 0000.0001) %MON forcing_qnet_del2            =   5.8418985893889E+01
(PID.TID 0000.0001) %MON forcing_qsw_max              =   0.0000000000000E+00
(PID.TID 0000.0001) %MON forcing_qsw_min              =   0.0000000000000E+00
(PID.TID 0000.0001) %MON forcing_qsw_mean             =   0.0000000000000E+00
(PID.TID 0000.0001) %MON forcing_qsw_sd               =   0.0000000000000E+00
(PID.TID 0000.0001) %MON forcing_qsw_del2             =   0.0000000000000E+00
(PID.TID 0000.0001) %MON forcing_empmr_max            =   7.8170306980610E-02
(PID.TID 0000.0001) %MON forcing_empmr_min            =  -9.9729251861572E-01
(PID.TID 0000.0001) %MON forcing_empmr_mean           =  -1.1395535152346E-03
(PID.TID 0000.0001) %MON forcing_empmr_sd             =   2.3065871947252E-02
(PID.TID 0000.0001) %MON forcing_empmr_del2           =   8.6857994857274E-04
(PID.TID 0000.0001) %MON forcing_fu_max               =   5.2671441063172E-01
(PID.TID 0000.0001) %MON forcing_fu_min               =  -4.7087130052072E-01
(PID.TID 0000.0001) %MON forcing_fu_mean              =  -5.7912647609108E-03
(PID.TID 0000.0001) %MON forcing_fu_sd                =   7.5189101402867E-02
(PID.TID 0000.0001) %MON forcing_fu_del2              =   7.6052682944222E-04
(PID.TID 0000.0001) %MON forcing_fv_max               =   3.1840054946215E-01
(PID.TID 0000.0001) %MON forcing_fv_min               =  -5.1713703113165E-01
(PID.TID 0000.0001) %MON forcing_fv_mean              =  -1.4433066433010E-02
(PID.TID 0000.0001) %MON forcing_fv_sd                =   7.1694906983681E-02
(PID.TID 0000.0001) %MON forcing_fv_del2              =   6.3018476174522E-04
(PID.TID 0000.0001) %MON trAdv_CFL_u_max              =   1.8246430510841E-03
(PID.TID 0000.0001) %MON trAdv_CFL_v_max              =   2.8636500861352E-03
(PID.TID 0000.0001) %MON trAdv_CFL_w_max              =   1.5827203602273E-02
(PID.TID 0000.0001) %MON advcfl_uvel_max              =   1.9313393540370E-03
(PID.TID 0000.0001) %MON advcfl_vvel_max              =   1.6193379842633E-03
(PID.TID 0000.0001) %MON advcfl_wvel_max              =   3.4688435430112E-02
(PID.TID 0000.0001) %MON advcfl_W_hf_max              =   1.5827203602273E-02
(PID.TID 0000.0001) %MON pe_b_mean                    =   5.5394142107426E-04
(PID.TID 0000.0001) %MON ke_max                       =   1.5978039627057E-01
(PID.TID 0000.0001) %MON ke_mean                      =   1.4790606193604E-04
(PID.TID 0000.0001) %MON ke_vol                       =   1.3398054496689E+18
(PID.TID 0000.0001) %MON vort_r_min                   =  -1.6394452053832E-06
(PID.TID 0000.0001) %MON vort_r_max                   =   1.7132188849858E-06
(PID.TID 0000.0001) %MON vort_a_mean                  =  -2.0549865324846E-05
(PID.TID 0000.0001) %MON vort_a_sd                    =   7.5259520772406E-05
(PID.TID 0000.0001) %MON vort_p_mean                  =  -2.4783431409844E-05
(PID.TID 0000.0001) %MON vort_p_sd                    =   1.2811974235967E-04
(PID.TID 0000.0001) %MON surfExpan_theta_mean         =  -6.1869401422693E-06
(PID.TID 0000.0001) %MON surfExpan_salt_mean          =   6.5609021189648E-07
(PID.TID 0000.0001) // =======================================================
(PID.TID 0000.0001) // End MONITOR dynamic field statistics
(PID.TID 0000.0001) // =======================================================
(PID.TID 0000.0001) // =======================================================
(PID.TID 0000.0001) // Begin MONITOR SEAICE statistics
(PID.TID 0000.0001) // =======================================================
(PID.TID 0000.0001) %MON seaice_tsnumber              =                 72002
(PID.TID 0000.0001) %MON seaice_time_sec              =   6.4801800000000E+07
(PID.TID 0000.0001) %MON seaice_uice_max              =   3.1887109590909E-01
(PID.TID 0000.0001) %MON seaice_uice_min              =  -2.8705232110235E-01
(PID.TID 0000.0001) %MON seaice_uice_mean             =  -6.4099202055230E-03
(PID.TID 0000.0001) %MON seaice_uice_sd               =   5.4203063928433E-02
(PID.TID 0000.0001) %MON seaice_uice_del2             =   6.4027547969758E-04
(PID.TID 0000.0001) %MON seaice_vice_max              =   2.8132857296494E-01
(PID.TID 0000.0001) %MON seaice_vice_min              =  -2.3128975484009E-01
(PID.TID 0000.0001) %MON seaice_vice_mean             =  -9.3180110763402E-03
(PID.TID 0000.0001) %MON seaice_vice_sd               =   5.5307681981863E-02
(PID.TID 0000.0001) %MON seaice_vice_del2             =   6.3122839351057E-04
(PID.TID 0000.0001) %MON seaice_area_max              =   1.0000000000000E+00
(PID.TID 0000.0001) %MON seaice_area_min              =   0.0000000000000E+00
(PID.TID 0000.0001) %MON seaice_area_mean             =   6.8846576670520E-02
(PID.TID 0000.0001) %MON seaice_area_sd               =   2.3657571104746E-01
(PID.TID 0000.0001) %MON seaice_area_del2             =   1.8019411704778E-03
(PID.TID 0000.0001) %MON seaice_heff_max              =   8.4388898186685E+00
(PID.TID 0000.0001) %MON seaice_heff_min              =   0.0000000000000E+00
(PID.TID 0000.0001) %MON seaice_heff_mean             =   2.0565988646087E-01
(PID.TID 0000.0001) %MON seaice_heff_sd               =   9.7649341025557E-01
(PID.TID 0000.0001) %MON seaice_heff_del2             =   6.2271430444670E-03
(PID.TID 0000.0001) %MON seaice_hsnow_max             =   2.0311683703861E+00
(PID.TID 0000.0001) %MON seaice_hsnow_min             =   0.0000000000000E+00
(PID.TID 0000.0001) %MON seaice_hsnow_mean            =   2.2784025461479E-02
(PID.TID 0000.0001) %MON seaice_hsnow_sd              =   1.1957485512738E-01
(PID.TID 0000.0001) %MON seaice_hsnow_del2            =   1.4654541894805E-03
(PID.TID 0000.0001) // =======================================================
(PID.TID 0000.0001) // End MONITOR SEAICE statistics
(PID.TID 0000.0001) // =======================================================
 SEAICE_LSR: Residual Initial ipass,Uice,Vice=    1  1.91273369E-02  2.22075282E-02
 SEAICE_LSR (ipass=   1) iters,dU,Resid=     8  1.54344211E-05  4.98845862E-06
 SEAICE_LSR (ipass=   1) iters,dV,Resid=     8  4.92076284E-05  1.49438832E-05
 SEAICE_LSR: Residual Initial ipass,Uice,Vice=    2  1.32551070E-02  1.36417854E-02
 SEAICE_LSR (ipass=   2) iters,dU,Resid=     8  1.13517117E-05  7.91545272E-06
 SEAICE_LSR (ipass=   2) iters,dV,Resid=     8  3.48603337E-05  1.21661568E-05
 cg2d: Sum(rhs),rhsMax =  -4.95124122222994E+00  1.70734557296272E+02
(PID.TID 0000.0001)      cg2d_init_res =   1.95796615321935E-01
(PID.TID 0000.0001)      cg2d_iters(min,last) =      -1       9
(PID.TID 0000.0001)      cg2d_last_res =   4.60782858204160E-08
(PID.TID 0000.0001) // =======================================================
(PID.TID 0000.0001) // Begin MONITOR dynamic field statistics
(PID.TID 0000.0001) // =======================================================
(PID.TID 0000.0001) %MON time_tsnumber                =                 72003
(PID.TID 0000.0001) %MON time_secondsf                =   6.4802700000000E+07
(PID.TID 0000.0001) %MON dynstat_eta_max              =   7.9894059582298E+00
(PID.TID 0000.0001) %MON dynstat_eta_min              =  -1.6205263295372E+00
(PID.TID 0000.0001) %MON dynstat_eta_mean             =   9.8228314376841E-03
(PID.TID 0000.0001) %MON dynstat_eta_sd               =   6.4036608275578E-01
(PID.TID 0000.0001) %MON dynstat_eta_del2             =   7.1430590509100E-03
(PID.TID 0000.0001) %MON dynstat_uvel_max             =   8.2510803352133E-01
(PID.TID 0000.0001) %MON dynstat_uvel_min             =  -4.7288082036057E-01
(PID.TID 0000.0001) %MON dynstat_uvel_mean            =  -4.3049008979576E-04
(PID.TID 0000.0001) %MON dynstat_uvel_sd              =   1.2637887111076E-02
(PID.TID 0000.0001) %MON dynstat_uvel_del2            =   8.8565378419345E-05
(PID.TID 0000.0001) %MON dynstat_vvel_max             =   7.1114590548823E-01
(PID.TID 0000.0001) %MON dynstat_vvel_min             =  -7.1900476134295E-01
(PID.TID 0000.0001) %MON dynstat_vvel_mean            =  -3.8019789620441E-04
(PID.TID 0000.0001) %MON dynstat_vvel_sd              =   1.3236194657992E-02
(PID.TID 0000.0001) %MON dynstat_vvel_del2            =   1.1885768903176E-04
(PID.TID 0000.0001) %MON dynstat_wvel_max             =   1.0359939642513E-04
(PID.TID 0000.0001) %MON dynstat_wvel_min             =  -8.2196883594583E-04
(PID.TID 0000.0001) %MON dynstat_wvel_mean            =  -2.2411641243885E-07
(PID.TID 0000.0001) %MON dynstat_wvel_sd              =   9.6353331023374E-06
(PID.TID 0000.0001) %MON dynstat_wvel_del2            =   9.3071774470785E-08
(PID.TID 0000.0001) %MON dynstat_theta_max            =   3.0925310175889E+01
(PID.TID 0000.0001) %MON dynstat_theta_min            =  -3.0163138772217E+00
(PID.TID 0000.0001) %MON dynstat_theta_mean           =   3.9089410802284E+00
(PID.TID 0000.0001) %MON dynstat_theta_sd             =   4.5706454151254E+00
(PID.TID 0000.0001) %MON dynstat_theta_del2           =   2.6544116442910E-03
(PID.TID 0000.0001) %MON dynstat_salt_max             =   4.1376508805581E+01
(PID.TID 0000.0001) %MON dynstat_salt_min             =   1.8518404077819E+01
(PID.TID 0000.0001) %MON dynstat_salt_mean            =   3.4772185937196E+01
(PID.TID 0000.0001) %MON dynstat_salt_sd              =   5.3094706179886E-01
(PID.TID 0000.0001) %MON dynstat_salt_del2            =   8.0380522554892E-04
(PID.TID 0000.0001) %MON dynstat_sst_max              =   3.0925310175889E+01
(PID.TID 0000.0001) %MON dynstat_sst_min              =  -1.9464178165971E+00
(PID.TID 0000.0001) %MON dynstat_sst_mean             =   1.8099542010960E+01
(PID.TID 0000.0001) %MON dynstat_sst_sd               =   9.8014508605362E+00
(PID.TID 0000.0001) %MON dynstat_sst_del2             =   1.5325096641641E-02
(PID.TID 0000.0001) %MON dynstat_sss_max              =   4.1376508805581E+01
(PID.TID 0000.0001) %MON dynstat_sss_min              =   1.8753325386153E+01
(PID.TID 0000.0001) %MON dynstat_sss_mean             =   3.4641140228266E+01
(PID.TID 0000.0001) %MON dynstat_sss_sd               =   1.4573514819593E+00
(PID.TID 0000.0001) %MON dynstat_sss_del2             =   8.0292190952640E-03
(PID.TID 0000.0001) %MON forcing_qnet_max             =   4.1593253906250E+04
(PID.TID 0000.0001) %MON forcing_qnet_min             =  -1.6905949218750E+04
(PID.TID 0000.0001) %MON forcing_qnet_mean            =  -1.5642316866484E+02
(PID.TID 0000.0001) %MON forcing_qnet_sd              =   1.3978007823169E+03
(PID.TID 0000.0001) %MON forcing_qnet_del2            =   4.9233080207969E+01
(PID.TID 0000.0001) %MON forcing_qsw_max              =   0.0000000000000E+00
(PID.TID 0000.0001) %MON forcing_qsw_min              =   0.0000000000000E+00
(PID.TID 0000.0001) %MON forcing_qsw_mean             =   0.0000000000000E+00
(PID.TID 0000.0001) %MON forcing_qsw_sd               =   0.0000000000000E+00
(PID.TID 0000.0001) %MON forcing_qsw_del2             =   0.0000000000000E+00
(PID.TID 0000.0001) %MON forcing_empmr_max            =   7.5694836676121E-02
(PID.TID 0000.0001) %MON forcing_empmr_min            =  -7.3506230115891E-01
(PID.TID 0000.0001) %MON forcing_empmr_mean           =  -6.6212171422039E-04
(PID.TID 0000.0001) %MON forcing_empmr_sd             =   1.3743465618392E-02
(PID.TID 0000.0001) %MON forcing_empmr_del2           =   5.3577653798414E-04
(PID.TID 0000.0001) %MON forcing_fu_max               =   5.5437417696238E-01
(PID.TID 0000.0001) %MON forcing_fu_min               =  -4.9051756467807E-01
(PID.TID 0000.0001) %MON forcing_fu_mean              =  -5.6821303845097E-03
(PID.TID 0000.0001) %MON forcing_fu_sd                =   7.6283763629748E-02
(PID.TID 0000.0001) %MON forcing_fu_del2              =   7.7241279214551E-04
(PID.TID 0000.0001) %MON forcing_fv_max               =   3.3975138445014E-01
(PID.TID 0000.0001) %MON forcing_fv_min               =  -5.0081036039803E-01
(PID.TID 0000.0001) %MON forcing_fv_mean              =  -1.4036619996607E-02
(PID.TID 0000.0001) %MON forcing_fv_sd                =   7.3149803460338E-02
(PID.TID 0000.0001) %MON forcing_fv_del2              =   6.4673312710312E-04
(PID.TID 0000.0001) %MON trAdv_CFL_u_max              =   2.5788546516543E-03
(PID.TID 0000.0001) %MON trAdv_CFL_v_max              =   4.0594065755949E-03
(PID.TID 0000.0001) %MON trAdv_CFL_w_max              =   1.1423449104095E-02
(PID.TID 0000.0001) %MON advcfl_uvel_max              =   2.7515427387834E-03
(PID.TID 0000.0001) %MON advcfl_vvel_max              =   2.3207284944740E-03
(PID.TID 0000.0001) %MON advcfl_wvel_max              =   2.5567384388136E-02
(PID.TID 0000.0001) %MON advcfl_W_hf_max              =   1.1423449104095E-02
(PID.TID 0000.0001) %MON pe_b_mean                    =   5.4641448162247E-04
(PID.TID 0000.0001) %MON ke_max                       =   3.2621493226797E-01
(PID.TID 0000.0001) %MON ke_mean                      =   1.5480401505155E-04
(PID.TID 0000.0001) %MON ke_vol                       =   1.3398058102501E+18
(PID.TID 0000.0001) %MON vort_r_min                   =  -2.4218015386484E-06
(PID.TID 0000.0001) %MON vort_r_max                   =   2.4457364383128E-06
(PID.TID 0000.0001) %MON vort_a_mean                  =  -2.0549865324846E-05
(PID.TID 0000.0001) %MON vort_a_sd                    =   7.5259523319424E-05
(PID.TID 0000.0001) %MON vort_p_mean                  =  -2.4783425083652E-05
(PID.TID 0000.0001) %MON vort_p_sd                    =   1.2811962718645E-04
(PID.TID 0000.0001) %MON surfExpan_theta_mean         =  -6.7943785883502E-06
(PID.TID 0000.0001) %MON surfExpan_salt_mean          =   7.1648416729874E-07
(PID.TID 0000.0001) // =======================================================
(PID.TID 0000.0001) // End MONITOR dynamic field statistics
(PID.TID 0000.0001) // =======================================================
(PID.TID 0000.0001) // =======================================================
(PID.TID 0000.0001) // Begin MONITOR SEAICE statistics
(PID.TID 0000.0001) // =======================================================
(PID.TID 0000.0001) %MON seaice_tsnumber              =                 72003
(PID.TID 0000.0001) %MON seaice_time_sec              =   6.4802700000000E+07
(PID.TID 0000.0001) %MON seaice_uice_max              =   5.6006119705740E-01
(PID.TID 0000.0001) %MON seaice_uice_min              =  -2.8627471121127E-01
(PID.TID 0000.0001) %MON seaice_uice_mean             =  -6.0227454345981E-03
(PID.TID 0000.0001) %MON seaice_uice_sd               =   5.5494367952227E-02
(PID.TID 0000.0001) %MON seaice_uice_del2             =   7.6440499411161E-04
(PID.TID 0000.0001) %MON seaice_vice_max              =   4.5881316014890E-01
(PID.TID 0000.0001) %MON seaice_vice_min              =  -4.6636466677705E-01
(PID.TID 0000.0001) %MON seaice_vice_mean             =  -9.4578894258888E-03
(PID.TID 0000.0001) %MON seaice_vice_sd               =   5.6098476760124E-02
(PID.TID 0000.0001) %MON seaice_vice_del2             =   8.9778041326596E-04
(PID.TID 0000.0001) %MON seaice_area_max              =   1.0000000000000E+00
(PID.TID 0000.0001) %MON seaice_area_min              =   0.0000000000000E+00
(PID.TID 0000.0001) %MON seaice_area_mean             =   6.8942215252418E-02
(PID.TID 0000.0001) %MON seaice_area_sd               =   2.3689806453912E-01
(PID.TID 0000.0001) %MON seaice_area_del2             =   1.7986271806506E-03
(PID.TID 0000.0001) %MON seaice_heff_max              =   8.4416266531674E+00
(PID.TID 0000.0001) %MON seaice_heff_min              =   0.0000000000000E+00
(PID.TID 0000.0001) %MON seaice_heff_mean             =   2.0569184541493E-01
(PID.TID 0000.0001) %MON seaice_heff_sd               =   9.7666200236042E-01
(PID.TID 0000.0001) %MON seaice_heff_del2             =   6.2279347216040E-03
(PID.TID 0000.0001) %MON seaice_hsnow_max             =   2.0313083275707E+00
(PID.TID 0000.0001) %MON seaice_hsnow_min             =   0.0000000000000E+00
(PID.TID 0000.0001) %MON seaice_hsnow_mean            =   2.2785442613943E-02
(PID.TID 0000.0001) %MON seaice_hsnow_sd              =   1.1957742249135E-01
(PID.TID 0000.0001) %MON seaice_hsnow_del2            =   1.4654960233504E-03
(PID.TID 0000.0001) // =======================================================
(PID.TID 0000.0001) // End MONITOR SEAICE statistics
(PID.TID 0000.0001) // =======================================================
 SEAICE_LSR: Residual Initial ipass,Uice,Vice=    1  1.61129961E-02  2.01207387E-02
 SEAICE_LSR (ipass=   1) iters,dU,Resid=     8  2.01093069E-05  1.97550710E-05
 SEAICE_LSR (ipass=   1) iters,dV,Resid=     8  8.63305392E-05  4.87503168E-05
 SEAICE_LSR: Residual Initial ipass,Uice,Vice=    2  1.18484683E-02  1.26673210E-02
 SEAICE_LSR (ipass=   2) iters,dU,Resid=     8  2.43488101E-05  2.64153462E-05
 SEAICE_LSR (ipass=   2) iters,dV,Resid=     8  5.98011483E-05  3.89759714E-05
 cg2d: Sum(rhs),rhsMax =  -5.51364575260597E+00  1.61497863255006E+02
(PID.TID 0000.0001)      cg2d_init_res =   2.22655905751540E-01
(PID.TID 0000.0001)      cg2d_iters(min,last) =      -1       9
(PID.TID 0000.0001)      cg2d_last_res =   4.88372727300448E-08
(PID.TID 0000.0001) // =======================================================
(PID.TID 0000.0001) // Begin MONITOR dynamic field statistics
(PID.TID 0000.0001) // =======================================================
(PID.TID 0000.0001) %MON time_tsnumber                =                 72004
(PID.TID 0000.0001) %MON time_secondsf                =   6.4803600000000E+07
(PID.TID 0000.0001) %MON dynstat_eta_max              =   7.5595013885593E+00
(PID.TID 0000.0001) %MON dynstat_eta_min              =  -1.6221924458101E+00
(PID.TID 0000.0001) %MON dynstat_eta_mean             =   1.0346818084030E-02
(PID.TID 0000.0001) %MON dynstat_eta_sd               =   6.3556399770529E-01
(PID.TID 0000.0001) %MON dynstat_eta_del2             =   6.3790099315355E-03
(PID.TID 0000.0001) %MON dynstat_uvel_max             =   1.0592074958245E+00
(PID.TID 0000.0001) %MON dynstat_uvel_min             =  -5.6495466748472E-01
(PID.TID 0000.0001) %MON dynstat_uvel_mean            =  -4.0233834960141E-04
(PID.TID 0000.0001) %MON dynstat_uvel_sd              =   1.2939914410946E-02
(PID.TID 0000.0001) %MON dynstat_uvel_del2            =   1.0358273115991E-04
(PID.TID 0000.0001) %MON dynstat_vvel_max             =   8.9811647084530E-01
(PID.TID 0000.0001) %MON dynstat_vvel_min             =  -9.2310434566689E-01
(PID.TID 0000.0001) %MON dynstat_vvel_mean            =  -3.7529474439297E-04
(PID.TID 0000.0001) %MON dynstat_vvel_sd              =   1.3513744708576E-02
(PID.TID 0000.0001) %MON dynstat_vvel_del2            =   1.4238381541145E-04
(PID.TID 0000.0001) %MON dynstat_wvel_max             =   1.0372040369976E-04
(PID.TID 0000.0001) %MON dynstat_wvel_min             =  -8.6329121850123E-04
(PID.TID 0000.0001) %MON dynstat_wvel_mean            =  -2.8552816773715E-07
(PID.TID 0000.0001) %MON dynstat_wvel_sd              =   1.0329231577032E-05
(PID.TID 0000.0001) %MON dynstat_wvel_del2            =   9.4113306735772E-08
(PID.TID 0000.0001) %MON dynstat_theta_max            =   3.0925084084966E+01
(PID.TID 0000.0001) %MON dynstat_theta_min            =  -3.0154699324348E+00
(PID.TID 0000.0001) %MON dynstat_theta_mean           =   3.9089510624053E+00
(PID.TID 0000.0001) %MON dynstat_theta_sd             =   4.5706779014748E+00
(PID.TID 0000.0001) %MON dynstat_theta_del2           =   2.6536989026893E-03
(PID.TID 0000.0001) %MON dynstat_salt_max             =   4.1375918233963E+01
(PID.TID 0000.0001) %MON dynstat_salt_min             =   1.8518413784639E+01
(PID.TID 0000.0001) %MON dynstat_salt_mean            =   3.4772178198684E+01
(PID.TID 0000.0001) %MON dynstat_salt_sd              =   5.3096002036281E-01
(PID.TID 0000.0001) %MON dynstat_salt_del2            =   8.0532971670838E-04
(PID.TID 0000.0001) %MON dynstat_sst_max              =   3.0925084084966E+01
(PID.TID 0000.0001) %MON dynstat_sst_min              =  -1.9462159238334E+00
(PID.TID 0000.0001) %MON dynstat_sst_mean             =   1.8100058686907E+01
(PID.TID 0000.0001) %MON dynstat_sst_sd               =   9.8016291356928E+00
(PID.TID 0000.0001) %MON dynstat_sst_del2             =   1.5305388614344E-02
(PID.TID 0000.0001) %MON dynstat_sss_max              =   4.1375918233963E+01
(PID.TID 0000.0001) %MON dynstat_sss_min              =   1.8752722977222E+01
(PID.TID 0000.0001) %MON dynstat_sss_mean             =   3.4640584825014E+01
(PID.TID 0000.0001) %MON dynstat_sss_sd               =   1.4576914334022E+00
(PID.TID 0000.0001) %MON dynstat_sss_del2             =   8.0529508008837E-03
(PID.TID 0000.0001) %MON forcing_qnet_max             =   1.4829838867188E+04
(PID.TID 0000.0001) %MON forcing_qnet_min             =  -9.6732070312500E+03
(PID.TID 0000.0001) %MON forcing_qnet_mean            =  -1.1626572017821E+02
(PID.TID 0000.0001) %MON forcing_qnet_sd              =   9.7017792147486E+02
(PID.TID 0000.0001) %MON forcing_qnet_del2            =   3.1808220961369E+01
(PID.TID 0000.0001) %MON forcing_qsw_max              =   0.0000000000000E+00
(PID.TID 0000.0001) %MON forcing_qsw_min              =   0.0000000000000E+00
(PID.TID 0000.0001) %MON forcing_qsw_mean             =   0.0000000000000E+00
(PID.TID 0000.0001) %MON forcing_qsw_sd               =   0.0000000000000E+00
(PID.TID 0000.0001) %MON forcing_qsw_del2             =   0.0000000000000E+00
(PID.TID 0000.0001) %MON forcing_empmr_max            =   7.7714525163174E-02
(PID.TID 0000.0001) %MON forcing_empmr_min            =  -5.9912300109863E-01
(PID.TID 0000.0001) %MON forcing_empmr_mean           =  -6.0258464329726E-04
(PID.TID 0000.0001) %MON forcing_empmr_sd             =   1.1974853444959E-02
(PID.TID 0000.0001) %MON forcing_empmr_del2           =   4.6996880259554E-04
(PID.TID 0000.0001) %MON forcing_fu_max               =   5.6987378331915E-01
(PID.TID 0000.0001) %MON forcing_fu_min               =  -4.8732382386251E-01
(PID.TID 0000.0001) %MON forcing_fu_mean              =  -5.5087402640386E-03
(PID.TID 0000.0001) %MON forcing_fu_sd                =   7.6401443129245E-02
(PID.TID 0000.0001) %MON forcing_fu_del2              =   7.7605364039868E-04
(PID.TID 0000.0001) %MON forcing_fv_max               =   3.5994940247439E-01
(PID.TID 0000.0001) %MON forcing_fv_min               =  -4.6829094144686E-01
(PID.TID 0000.0001) %MON forcing_fv_mean              =  -1.3754797023226E-02
(PID.TID 0000.0001) %MON forcing_fv_sd                =   7.3671551689916E-02
(PID.TID 0000.0001) %MON forcing_fv_del2              =   6.5387151503535E-04
(PID.TID 0000.0001) %MON trAdv_CFL_u_max              =   3.3231744125603E-03
(PID.TID 0000.0001) %MON trAdv_CFL_v_max              =   5.0136840602802E-03
(PID.TID 0000.0001) %MON trAdv_CFL_w_max              =   9.0853705259144E-03
(PID.TID 0000.0001) %MON advcfl_uvel_max              =   3.5322098144685E-03
(PID.TID 0000.0001) %MON advcfl_vvel_max              =   2.9308816505330E-03
(PID.TID 0000.0001) %MON advcfl_wvel_max              =   2.0839060907779E-02
(PID.TID 0000.0001) %MON advcfl_W_hf_max              =   9.0853705259144E-03
(PID.TID 0000.0001) %MON pe_b_mean                    =   5.3826603482486E-04
(PID.TID 0000.0001) %MON ke_max                       =   5.4146050749736E-01
(PID.TID 0000.0001) %MON ke_mean                      =   1.6178483254658E-04
(PID.TID 0000.0001) %MON ke_vol                       =   1.3398060197608E+18
(PID.TID 0000.0001) %MON vort_r_min                   =  -3.1025741629926E-06
(PID.TID 0000.0001) %MON vort_r_max                   =   3.0682155876122E-06
(PID.TID 0000.0001) %MON vort_a_mean                  =  -2.0549865324846E-05
(PID.TID 0000.0001) %MON vort_a_sd                    =   7.5259525555131E-05
(PID.TID 0000.0001) %MON vort_p_mean                  =  -2.4783420371659E-05
(PID.TID 0000.0001) %MON vort_p_sd                    =   1.2811956606036E-04
(PID.TID 0000.0001) %MON surfExpan_theta_mean         =  -7.2025658493130E-06
(PID.TID 0000.0001) %MON surfExpan_salt_mean          =   8.2422912167596E-07
(PID.TID 0000.0001) // =======================================================
(PID.TID 0000.0001) // End MONITOR dynamic field statistics
(PID.TID 0000.0001) // =======================================================
(PID.TID 0000.0001) // =======================================================
(PID.TID 0000.0001) // Begin MONITOR SEAICE statistics
(PID.TID 0000.0001) // =======================================================
(PID.TID 0000.0001) %MON seaice_tsnumber              =                 72004
(PID.TID 0000.0001) %MON seaice_time_sec              =   6.4803600000000E+07
(PID.TID 0000.0001) %MON seaice_uice_max              =   8.0810336542436E-01
(PID.TID 0000.0001) %MON seaice_uice_min              =  -2.8548563641940E-01
(PID.TID 0000.0001) %MON seaice_uice_mean             =  -5.7088310076438E-03
(PID.TID 0000.0001) %MON seaice_uice_sd               =   5.7566513912946E-02
(PID.TID 0000.0001) %MON seaice_uice_del2             =   9.2075698059967E-04
(PID.TID 0000.0001) %MON seaice_vice_max              =   6.7552272282743E-01
(PID.TID 0000.0001) %MON seaice_vice_min              =  -6.9594836458521E-01
(PID.TID 0000.0001) %MON seaice_vice_mean             =  -9.6233457271254E-03
(PID.TID 0000.0001) %MON seaice_vice_sd               =   5.7997344866728E-02
(PID.TID 0000.0001) %MON seaice_vice_del2             =   1.1908649016047E-03
(PID.TID 0000.0001) %MON seaice_area_max              =   1.0000000000000E+00
(PID.TID 0000.0001) %MON seaice_area_min              =   0.0000000000000E+00
(PID.TID 0000.0001) %MON seaice_area_mean             =   6.9006401810640E-02
(PID.TID 0000.0001) %MON seaice_area_sd               =   2.3710710244928E-01
(PID.TID 0000.0001) %MON seaice_area_del2             =   1.7959456031735E-03
(PID.TID 0000.0001) %MON seaice_heff_max              =   8.4444579521402E+00
(PID.TID 0000.0001) %MON seaice_heff_min              =   0.0000000000000E+00
(PID.TID 0000.0001) %MON seaice_heff_mean             =   2.0572271741820E-01
(PID.TID 0000.0001) %MON seaice_heff_sd               =   9.7682724734938E-01
(PID.TID 0000.0001) %MON seaice_heff_del2             =   6.2286652342702E-03
(PID.TID 0000.0001) %MON seaice_hsnow_max             =   2.0314155660452E+00
(PID.TID 0000.0001) %MON seaice_hsnow_min             =   0.0000000000000E+00
(PID.TID 0000.0001) %MON seaice_hsnow_mean            =   2.2786313735445E-02
(PID.TID 0000.0001) %MON seaice_hsnow_sd              =   1.1957865098960E-01
(PID.TID 0000.0001) %MON seaice_hsnow_del2            =   1.4655108618084E-03
(PID.TID 0000.0001) // =======================================================
(PID.TID 0000.0001) // End MONITOR SEAICE statistics
(PID.TID 0000.0001) // =======================================================
 Compute Stats, Diag. #    211  SIarea    vol(   0 ): 1.456E+15  Parms: SM      M1      
 Compute Stats, Diag. #    214  SIheff    vol(   0 ): 1.456E+15  Parms: SM      M1      
 Compute Stats, Diag. #    216  SIhsnow   vol(   0 ): 1.456E+15  Parms: SM      M1      
 Compute Stats, Diag. #     83  sIceLoad  vol(   0 ): 1.456E+15  Parms: SM      U1      
 Compute Stats, Diag. #    220  SIuice    vol(   0 ): 1.383E+15  Parms: UU      M1      
 Compute Stats, Diag. #    221  SIvice    vol(   0 ): 1.391E+15  Parms: VV      M1      
 Compute Stats, Diag. #    222  SItaux    vol(   0 ): 1.383E+15  Parms: UU      U1      
 Compute Stats, Diag. #    223  SItauy    vol(   0 ): 1.391E+15  Parms: VV      U1      
 SEAICE_LSR: Residual Initial ipass,Uice,Vice=    1  1.40003942E-02  1.66795573E-02
 SEAICE_LSR (ipass=   1) iters,dU,Resid=    10  1.56901775E-05  2.15132983E-05
 SEAICE_LSR (ipass=   1) iters,dV,Resid=    10  3.82510409E-05  4.38874286E-05
 SEAICE_LSR: Residual Initial ipass,Uice,Vice=    2  1.09630348E-02  1.10587164E-02
 SEAICE_LSR (ipass=   2) iters,dU,Resid=     8  4.89670262E-05  7.92224869E-05
 SEAICE_LSR (ipass=   2) iters,dV,Resid=     8  8.06493753E-05  9.33927625E-05
 cg2d: Sum(rhs),rhsMax =  -6.20522970312605E+00  1.50484867709529E+02
(PID.TID 0000.0001)      cg2d_init_res =   2.42897075274815E-01
(PID.TID 0000.0001)      cg2d_iters(min,last) =      -1       9
(PID.TID 0000.0001)      cg2d_last_res =   5.64845750646375E-08
(PID.TID 0000.0001) // =======================================================
(PID.TID 0000.0001) // Begin MONITOR dynamic field statistics
(PID.TID 0000.0001) // =======================================================
(PID.TID 0000.0001) %MON time_tsnumber                =                 72005
(PID.TID 0000.0001) %MON time_secondsf                =   6.4804500000000E+07
(PID.TID 0000.0001) %MON dynstat_eta_max              =   7.0467667659124E+00
(PID.TID 0000.0001) %MON dynstat_eta_min              =  -1.6237234508267E+00
(PID.TID 0000.0001) %MON dynstat_eta_mean             =   1.0850552853219E-02
(PID.TID 0000.0001) %MON dynstat_eta_sd               =   6.3098840316436E-01
(PID.TID 0000.0001) %MON dynstat_eta_del2             =   5.5764412527665E-03
(PID.TID 0000.0001) %MON dynstat_uvel_max             =   1.2700205192851E+00
(PID.TID 0000.0001) %MON dynstat_uvel_min             =  -6.4907096376363E-01
(PID.TID 0000.0001) %MON dynstat_uvel_mean            =  -3.7161838575915E-04
(PID.TID 0000.0001) %MON dynstat_uvel_sd              =   1.3209700113044E-02
(PID.TID 0000.0001) %MON dynstat_uvel_del2            =   1.1612362858461E-04
(PID.TID 0000.0001) %MON dynstat_vvel_max             =   1.0562096156559E+00
(PID.TID 0000.0001) %MON dynstat_vvel_min             =  -1.1056272086866E+00
(PID.TID 0000.0001) %MON dynstat_vvel_mean            =  -3.7300112617123E-04
(PID.TID 0000.0001) %MON dynstat_vvel_sd              =   1.3756676991821E-02
(PID.TID 0000.0001) %MON dynstat_vvel_del2            =   1.6092742225370E-04
(PID.TID 0000.0001) %MON dynstat_wvel_max             =   1.0379443346282E-04
(PID.TID 0000.0001) %MON dynstat_wvel_min             =  -8.1067761656748E-04
(PID.TID 0000.0001) %MON dynstat_wvel_mean            =  -3.4301694275605E-07
(PID.TID 0000.0001) %MON dynstat_wvel_sd              =   1.0495199160045E-05
(PID.TID 0000.0001) %MON dynstat_wvel_del2            =   9.3935506037834E-08
(PID.TID 0000.0001) %MON dynstat_theta_max            =   3.0924851327140E+01
(PID.TID 0000.0001) %MON dynstat_theta_min            =  -3.0145559982830E+00
(PID.TID 0000.0001) %MON dynstat_theta_mean           =   3.9089646142347E+00
(PID.TID 0000.0001) %MON dynstat_theta_sd             =   4.5707287196952E+00
(PID.TID 0000.0001) %MON dynstat_theta_del2           =   2.6528582658338E-03
(PID.TID 0000.0001) %MON dynstat_salt_max             =   4.1375234653791E+01
(PID.TID 0000.0001) %MON dynstat_salt_min             =   1.8518423378709E+01
(PID.TID 0000.0001) %MON dynstat_salt_mean            =   3.4772170648176E+01
(PID.TID 0000.0001) %MON dynstat_salt_sd              =   5.3097382617216E-01
(PID.TID 0000.0001) %MON dynstat_salt_del2            =   8.0726570209650E-04
(PID.TID 0000.0001) %MON dynstat_sst_max              =   3.0924851327140E+01
(PID.TID 0000.0001) %MON dynstat_sst_min              =  -1.9460173957458E+00
(PID.TID 0000.0001) %MON dynstat_sst_mean             =   1.8100839107743E+01
(PID.TID 0000.0001) %MON dynstat_sst_sd               =   9.8020514095070E+00
(PID.TID 0000.0001) %MON dynstat_sst_del2             =   1.5283200260737E-02
(PID.TID 0000.0001) %MON dynstat_sss_max              =   4.1375234653791E+01
(PID.TID 0000.0001) %MON dynstat_sss_min              =   1.8751621624910E+01
(PID.TID 0000.0001) %MON dynstat_sss_mean             =   3.4640044512967E+01
(PID.TID 0000.0001) %MON dynstat_sss_sd               =   1.4580150596366E+00
(PID.TID 0000.0001) %MON dynstat_sss_del2             =   8.0832963363327E-03
(PID.TID 0000.0001) %MON forcing_qnet_max             =   1.3223542677784E+04
(PID.TID 0000.0001) %MON forcing_qnet_min             =  -1.6057337890625E+04
(PID.TID 0000.0001) %MON forcing_qnet_mean            =  -1.7850696394776E+02
(PID.TID 0000.0001) %MON forcing_qnet_sd              =   8.7668255043779E+02
(PID.TID 0000.0001) %MON forcing_qnet_del2            =   3.2125158163577E+01
(PID.TID 0000.0001) %MON forcing_qsw_max              =   0.0000000000000E+00
(PID.TID 0000.0001) %MON forcing_qsw_min              =  -1.0735262575327E+02
(PID.TID 0000.0001) %MON forcing_qsw_mean             =  -2.1958099681668E+01
(PID.TID 0000.0001) %MON forcing_qsw_sd               =   2.9868386279610E+01
(PID.TID 0000.0001) %MON forcing_qsw_del2             =   1.5870549123644E-01
(PID.TID 0000.0001) %MON forcing_empmr_max            =   4.6309687197208E-02
(PID.TID 0000.0001) %MON forcing_empmr_min            =  -5.0675100088120E-01
(PID.TID 0000.0001) %MON forcing_empmr_mean           =  -5.7929498456797E-04
(PID.TID 0000.0001) %MON forcing_empmr_sd             =   1.0804845666796E-02
(PID.TID 0000.0001) %MON forcing_empmr_del2           =   4.2713340719270E-04
(PID.TID 0000.0001) %MON forcing_fu_max               =   5.8804795633516E-01
(PID.TID 0000.0001) %MON forcing_fu_min               =  -4.6984672411899E-01
(PID.TID 0000.0001) %MON forcing_fu_mean              =  -5.3659576200046E-03
(PID.TID 0000.0001) %MON forcing_fu_sd                =   7.6314741469089E-02
(PID.TID 0000.0001) %MON forcing_fu_del2              =   7.7684019625195E-04
(PID.TID 0000.0001) %MON forcing_fv_max               =   3.6930315388496E-01
(PID.TID 0000.0001) %MON forcing_fv_min               =  -4.3061027037119E-01
(PID.TID 0000.0001) %MON forcing_fv_mean              =  -1.3589515859608E-02
(PID.TID 0000.0001) %MON forcing_fv_sd                =   7.3898637577248E-02
(PID.TID 0000.0001) %MON forcing_fv_del2              =   6.5624126465805E-04
(PID.TID 0000.0001) %MON trAdv_CFL_u_max              =   4.0027611092583E-03
(PID.TID 0000.0001) %MON trAdv_CFL_v_max              =   5.8721511096495E-03
(PID.TID 0000.0001) %MON trAdv_CFL_w_max              =   7.4953852102290E-03
(PID.TID 0000.0001) %MON advcfl_uvel_max              =   4.2352220509006E-03
(PID.TID 0000.0001) %MON advcfl_vvel_max              =   3.4467972497252E-03
(PID.TID 0000.0001) %MON advcfl_wvel_max              =   1.7626121769781E-02
(PID.TID 0000.0001) %MON advcfl_W_hf_max              =   7.4953852102290E-03
(PID.TID 0000.0001) %MON pe_b_mean                    =   5.3055988712057E-04
(PID.TID 0000.0001) %MON ke_max                       =   7.7856855606740E-01
(PID.TID 0000.0001) %MON ke_mean                      =   1.6808793531220E-04
(PID.TID 0000.0001) %MON ke_vol                       =   1.3398062104326E+18
(PID.TID 0000.0001) %MON vort_r_min                   =  -3.6576920650227E-06
(PID.TID 0000.0001) %MON vort_r_max                   =   3.5779047361147E-06
(PID.TID 0000.0001) %MON vort_a_mean                  =  -2.0549865324846E-05
(PID.TID 0000.0001) %MON vort_a_sd                    =   7.5259527189312E-05
(PID.TID 0000.0001) %MON vort_p_mean                  =  -2.4783415679937E-05
(PID.TID 0000.0001) %MON vort_p_sd                    =   1.2811950838814E-04
(PID.TID 0000.0001) %MON surfExpan_theta_mean         =  -7.5187954587384E-06
(PID.TID 0000.0001) %MON surfExpan_salt_mean          =   9.4836762217405E-07
(PID.TID 0000.0001) // =======================================================
(PID.TID 0000.0001) // End MONITOR dynamic field statistics
(PID.TID 0000.0001) // =======================================================
(PID.TID 0000.0001) // =======================================================
(PID.TID 0000.0001) // Begin MONITOR SEAICE statistics
(PID.TID 0000.0001) // =======================================================
(PID.TID 0000.0001) %MON seaice_tsnumber              =                 72005
(PID.TID 0000.0001) %MON seaice_time_sec              =   6.4804500000000E+07
(PID.TID 0000.0001) %MON seaice_uice_max              =   1.0377172152948E+00
(PID.TID 0000.0001) %MON seaice_uice_min              =  -3.4438615112671E-01
(PID.TID 0000.0001) %MON seaice_uice_mean             =  -5.4302358619916E-03
(PID.TID 0000.0001) %MON seaice_uice_sd               =   5.9964767293026E-02
(PID.TID 0000.0001) %MON seaice_uice_del2             =   1.0729172639962E-03
(PID.TID 0000.0001) %MON seaice_vice_max              =   8.6302889877921E-01
(PID.TID 0000.0001) %MON seaice_vice_min              =  -9.0840630840381E-01
(PID.TID 0000.0001) %MON seaice_vice_mean             =  -9.8299029598624E-03
(PID.TID 0000.0001) %MON seaice_vice_sd               =   6.0374529426603E-02
(PID.TID 0000.0001) %MON seaice_vice_del2             =   1.4511738963189E-03
(PID.TID 0000.0001) %MON seaice_area_max              =   1.0000000000000E+00
(PID.TID 0000.0001) %MON seaice_area_min              =   0.0000000000000E+00
(PID.TID 0000.0001) %MON seaice_area_mean             =   6.9055980690786E-02
(PID.TID 0000.0001) %MON seaice_area_sd               =   2.3726649272879E-01
(PID.TID 0000.0001) %MON seaice_area_del2             =   1.7939749119253E-03
(PID.TID 0000.0001) %MON seaice_heff_max              =   8.4475415624234E+00
(PID.TID 0000.0001) %MON seaice_heff_min              =   0.0000000000000E+00
(PID.TID 0000.0001) %MON seaice_heff_mean             =   2.0575242260595E-01
(PID.TID 0000.0001) %MON seaice_heff_sd               =   9.7698859302873E-01
(PID.TID 0000.0001) %MON seaice_heff_del2             =   6.2293583920048E-03
(PID.TID 0000.0001) %MON seaice_hsnow_max             =   2.0314966871053E+00
(PID.TID 0000.0001) %MON seaice_hsnow_min             =   0.0000000000000E+00
(PID.TID 0000.0001) %MON seaice_hsnow_mean            =   2.2786913841954E-02
(PID.TID 0000.0001) %MON seaice_hsnow_sd              =   1.1957934316512E-01
(PID.TID 0000.0001) %MON seaice_hsnow_del2            =   1.4655088639249E-03
(PID.TID 0000.0001) // =======================================================
(PID.TID 0000.0001) // End MONITOR SEAICE statistics
(PID.TID 0000.0001) // =======================================================
 Computing Diagnostic #    211  SIarea       Counter:       1   Parms: SM      M1      
 Computing Diagnostic #    214  SIheff       Counter:       1   Parms: SM      M1      
 Computing Diagnostic #    216  SIhsnow      Counter:       1   Parms: SM      M1      
 Computing Diagnostic #     83  sIceLoad     Counter:       1   Parms: SM      U1      
 Computing Diagnostic #    220  SIuice       Counter:       1   Parms: UU      M1      
           Vector  Mate for  SIuice       Diagnostic #    221  SIvice   exists 
 Computing Diagnostic #    221  SIvice       Counter:       1   Parms: VV      M1      
           Vector  Mate for  SIvice       Diagnostic #    220  SIuice   exists 
 Computing Diagnostic #    222  SItaux       Counter:       1   Parms: UU      U1      
           Vector  Mate for  SItaux       Diagnostic #    223  SItauy   exists 
 Computing Diagnostic #    223  SItauy       Counter:       1   Parms: VV      U1      
           Vector  Mate for  SItauy       Diagnostic #    222  SItaux   exists 
 Computing Diagnostic #      1  SDIAG1       Counter:       1   Parms: SM      L1      
 Computing Diagnostic #    282  SIareaN      Counter:       1   Parms: SM      MX      
 Computing Diagnostic #    281  SIheffN      Counter:       1   Parms: SM      MX      
 Computing Diagnostic #    283  SIhsnowN     Counter:       1   Parms: SM      MX      
 SEAICE_LSR: Residual Initial ipass,Uice,Vice=    1  1.43421029E-02  1.45486526E-02
 SEAICE_LSR (ipass=   1) iters,dU,Resid=    10  3.41150234E-05  6.71514311E-05
 SEAICE_LSR (ipass=   1) iters,dV,Resid=    10  5.42104113E-05  8.31299061E-05
 SEAICE_LSR: Residual Initial ipass,Uice,Vice=    2  1.13973920E-02  1.00148820E-02
 SEAICE_LSR (ipass=   2) iters,dU,Resid=     8  7.34386707E-05  1.62445302E-04
 SEAICE_LSR (ipass=   2) iters,dV,Resid=     8  8.69185893E-05  1.16579338E-04
 cg2d: Sum(rhs),rhsMax =  -7.07243627572146E+00  1.37978541903405E+02
(PID.TID 0000.0001)      cg2d_init_res =   2.61400593773089E-01
(PID.TID 0000.0001)      cg2d_iters(min,last) =      -1       9
(PID.TID 0000.0001)      cg2d_last_res =   6.89411314150431E-08
(PID.TID 0000.0001) // =======================================================
(PID.TID 0000.0001) // Begin MONITOR dynamic field statistics
(PID.TID 0000.0001) // =======================================================
(PID.TID 0000.0001) %MON time_tsnumber                =                 72006
(PID.TID 0000.0001) %MON time_secondsf                =   6.4805400000000E+07
(PID.TID 0000.0001) %MON dynstat_eta_max              =   6.4642750084443E+00
(PID.TID 0000.0001) %MON dynstat_eta_min              =  -1.6246990102606E+00
(PID.TID 0000.0001) %MON dynstat_eta_mean             =   1.1339183082875E-02
(PID.TID 0000.0001) %MON dynstat_eta_sd               =   6.2682441029225E-01
(PID.TID 0000.0001) %MON dynstat_eta_del2             =   4.7929852903615E-03
(PID.TID 0000.0001) %MON dynstat_uvel_max             =   1.4551053860942E+00
(PID.TID 0000.0001) %MON dynstat_uvel_min             =  -7.2448041415779E-01
(PID.TID 0000.0001) %MON dynstat_uvel_mean            =  -3.3955442715069E-04
(PID.TID 0000.0001) %MON dynstat_uvel_sd              =   1.3437357334573E-02
(PID.TID 0000.0001) %MON dynstat_uvel_del2            =   1.2590317330650E-04
(PID.TID 0000.0001) %MON dynstat_vvel_max             =   1.1843276921204E+00
(PID.TID 0000.0001) %MON dynstat_vvel_min             =  -1.2636818031475E+00
(PID.TID 0000.0001) %MON dynstat_vvel_mean            =  -3.7349242910902E-04
(PID.TID 0000.0001) %MON dynstat_vvel_sd              =   1.3956878686794E-02
(PID.TID 0000.0001) %MON dynstat_vvel_del2            =   1.7439658544190E-04
(PID.TID 0000.0001) %MON dynstat_wvel_max             =   1.0375124092303E-04
(PID.TID 0000.0001) %MON dynstat_wvel_min             =  -6.9155069091788E-04
(PID.TID 0000.0001) %MON dynstat_wvel_mean            =  -3.9239467340895E-07
(PID.TID 0000.0001) %MON dynstat_wvel_sd              =   1.0266499192625E-05
(PID.TID 0000.0001) %MON dynstat_wvel_del2            =   9.2391729629823E-08
(PID.TID 0000.0001) %MON dynstat_theta_max            =   3.0924611250895E+01
(PID.TID 0000.0001) %MON dynstat_theta_min            =  -3.0136663086557E+00
(PID.TID 0000.0001) %MON dynstat_theta_mean           =   3.9089771557976E+00
(PID.TID 0000.0001) %MON dynstat_theta_sd             =   4.5707764959308E+00
(PID.TID 0000.0001) %MON dynstat_theta_del2           =   2.6520462021718E-03
(PID.TID 0000.0001) %MON dynstat_salt_max             =   4.1374469140612E+01
(PID.TID 0000.0001) %MON dynstat_salt_min             =   1.8518432930878E+01
(PID.TID 0000.0001) %MON dynstat_salt_mean            =   3.4772163263257E+01
(PID.TID 0000.0001) %MON dynstat_salt_sd              =   5.3098814056242E-01
(PID.TID 0000.0001) %MON dynstat_salt_del2            =   8.0961598641912E-04
(PID.TID 0000.0001) %MON dynstat_sst_max              =   3.0924611250895E+01
(PID.TID 0000.0001) %MON dynstat_sst_min              =  -1.9458211185923E+00
(PID.TID 0000.0001) %MON dynstat_sst_mean             =   1.8101555949976E+01
(PID.TID 0000.0001) %MON dynstat_sst_sd               =   9.8024683427575E+00
(PID.TID 0000.0001) %MON dynstat_sst_del2             =   1.5262086416327E-02
(PID.TID 0000.0001) %MON dynstat_sss_max              =   4.1374469140612E+01
(PID.TID 0000.0001) %MON dynstat_sss_min              =   1.8751421386055E+01
(PID.TID 0000.0001) %MON dynstat_sss_mean             =   3.4639517016287E+01
(PID.TID 0000.0001) %MON dynstat_sss_sd               =   1.4583465426695E+00
(PID.TID 0000.0001) %MON dynstat_sss_del2             =   8.1201343869221E-03
(PID.TID 0000.0001) %MON forcing_qnet_max             =   1.4068145507812E+04
(PID.TID 0000.0001) %MON forcing_qnet_min             =  -3.3352191406250E+04
(PID.TID 0000.0001) %MON forcing_qnet_mean            =  -1.6294916267323E+02
(PID.TID 0000.0001) %MON forcing_qnet_sd              =   8.6001302381784E+02
(PID.TID 0000.0001) %MON forcing_qnet_del2            =   3.6012998872691E+01
(PID.TID 0000.0001) %MON forcing_qsw_max              =   0.0000000000000E+00
(PID.TID 0000.0001) %MON forcing_qsw_min              =  -1.0668018394026E+02
(PID.TID 0000.0001) %MON forcing_qsw_mean             =  -2.2000202556634E+01
(PID.TID 0000.0001) %MON forcing_qsw_sd               =   2.9887576100894E+01
(PID.TID 0000.0001) %MON forcing_qsw_del2             =   1.6000151940869E-01
(PID.TID 0000.0001) %MON forcing_empmr_max            =   4.6476844698191E-02
(PID.TID 0000.0001) %MON forcing_empmr_min            =  -4.3633216619492E-01
(PID.TID 0000.0001) %MON forcing_empmr_mean           =  -5.6192476410429E-04
(PID.TID 0000.0001) %MON forcing_empmr_sd             =   9.9517861409774E-03
(PID.TID 0000.0001) %MON forcing_empmr_del2           =   3.9626745298959E-04
(PID.TID 0000.0001) %MON forcing_fu_max               =   6.1001649651125E-01
(PID.TID 0000.0001) %MON forcing_fu_min               =  -4.4552421344645E-01
(PID.TID 0000.0001) %MON forcing_fu_mean              =  -5.2773440864885E-03
(PID.TID 0000.0001) %MON forcing_fu_sd                =   7.6229643686763E-02
(PID.TID 0000.0001) %MON forcing_fu_del2              =   7.7655751835332E-04
(PID.TID 0000.0001) %MON forcing_fv_max               =   3.6921243918923E-01
(PID.TID 0000.0001) %MON forcing_fv_min               =  -3.9409614702336E-01
(PID.TID 0000.0001) %MON forcing_fv_mean              =  -1.3492527415411E-02
(PID.TID 0000.0001) %MON forcing_fv_sd                =   7.4056555289833E-02
(PID.TID 0000.0001) %MON forcing_fv_del2              =   6.5602405918362E-04
(PID.TID 0000.0001) %MON trAdv_CFL_u_max              =   4.6091220808410E-03
(PID.TID 0000.0001) %MON trAdv_CFL_v_max              =   6.7167831915702E-03
(PID.TID 0000.0001) %MON trAdv_CFL_w_max              =   6.4855788705106E-03
(PID.TID 0000.0001) %MON advcfl_uvel_max              =   4.8524368890037E-03
(PID.TID 0000.0001) %MON advcfl_vvel_max              =   3.8648932668909E-03
(PID.TID 0000.0001) %MON advcfl_wvel_max              =   1.5176770998084E-02
(PID.TID 0000.0001) %MON advcfl_W_hf_max              =   6.4855788705106E-03
(PID.TID 0000.0001) %MON pe_b_mean                    =   5.2359693007201E-04
(PID.TID 0000.0001) %MON ke_max                       =   1.0180485028623E+00
(PID.TID 0000.0001) %MON ke_mean                      =   1.7343923341184E-04
(PID.TID 0000.0001) %MON ke_vol                       =   1.3398063937350E+18
(PID.TID 0000.0001) %MON vort_r_min                   =  -4.1709974664817E-06
(PID.TID 0000.0001) %MON vort_r_max                   =   3.9712907939603E-06
(PID.TID 0000.0001) %MON vort_a_mean                  =  -2.0549865324846E-05
(PID.TID 0000.0001) %MON vort_a_sd                    =   7.5259528105947E-05
(PID.TID 0000.0001) %MON vort_p_mean                  =  -2.4783410967382E-05
(PID.TID 0000.0001) %MON vort_p_sd                    =   1.2811945126564E-04
(PID.TID 0000.0001) %MON surfExpan_theta_mean         =  -7.7544995881595E-06
(PID.TID 0000.0001) %MON surfExpan_salt_mean          =   1.0765436258896E-06
(PID.TID 0000.0001) // =======================================================
(PID.TID 0000.0001) // End MONITOR dynamic field statistics
(PID.TID 0000.0001) // =======================================================
(PID.TID 0000.0001) // =======================================================
(PID.TID 0000.0001) // Begin MONITOR SEAICE statistics
(PID.TID 0000.0001) // =======================================================
(PID.TID 0000.0001) %MON seaice_tsnumber              =                 72006
(PID.TID 0000.0001) %MON seaice_time_sec              =   6.4805400000000E+07
(PID.TID 0000.0001) %MON seaice_uice_max              =   1.2426252110002E+00
(PID.TID 0000.0001) %MON seaice_uice_min              =  -4.2386162919762E-01
(PID.TID 0000.0001) %MON seaice_uice_mean             =  -5.1994831803501E-03
(PID.TID 0000.0001) %MON seaice_uice_sd               =   6.2044692612285E-02
(PID.TID 0000.0001) %MON seaice_uice_del2             =   1.2049123228891E-03
(PID.TID 0000.0001) %MON seaice_vice_max              =   1.0200565838714E+00
(PID.TID 0000.0001) %MON seaice_vice_min              =  -1.0986462144284E+00
(PID.TID 0000.0001) %MON seaice_vice_mean             =  -9.9275004366617E-03
(PID.TID 0000.0001) %MON seaice_vice_sd               =   6.2647790442989E-02
(PID.TID 0000.0001) %MON seaice_vice_del2             =   1.6619486550310E-03
(PID.TID 0000.0001) %MON seaice_area_max              =   1.0000000000000E+00
(PID.TID 0000.0001) %MON seaice_area_min              =   0.0000000000000E+00
(PID.TID 0000.0001) %MON seaice_area_mean             =   6.9102060768722E-02
(PID.TID 0000.0001) %MON seaice_area_sd               =   2.3741856029036E-01
(PID.TID 0000.0001) %MON seaice_area_del2             =   1.7925886959869E-03
(PID.TID 0000.0001) %MON seaice_heff_max              =   8.4506477874905E+00
(PID.TID 0000.0001) %MON seaice_heff_min              =   0.0000000000000E+00
(PID.TID 0000.0001) %MON seaice_heff_mean             =   2.0578084683838E-01
(PID.TID 0000.0001) %MON seaice_heff_sd               =   9.7714557327137E-01
(PID.TID 0000.0001) %MON seaice_heff_del2             =   6.2300430603990E-03
(PID.TID 0000.0001) %MON seaice_hsnow_max             =   2.0315531758178E+00
(PID.TID 0000.0001) %MON seaice_hsnow_min             =   0.0000000000000E+00
(PID.TID 0000.0001) %MON seaice_hsnow_mean            =   2.2787273653933E-02
(PID.TID 0000.0001) %MON seaice_hsnow_sd              =   1.1957952532294E-01
(PID.TID 0000.0001) %MON seaice_hsnow_del2            =   1.4655002560960E-03
(PID.TID 0000.0001) // =======================================================
(PID.TID 0000.0001) // End MONITOR SEAICE statistics
(PID.TID 0000.0001) // =======================================================
 SEAICE_LSR: Residual Initial ipass,Uice,Vice=    1  1.35961818E-02  1.29899463E-02
 SEAICE_LSR (ipass=   1) iters,dU,Resid=    10  6.05414250E-05  1.68887339E-04
 SEAICE_LSR (ipass=   1) iters,dV,Resid=    10  5.53498126E-05  1.13540902E-04
 SEAICE_LSR: Residual Initial ipass,Uice,Vice=    2  1.03502073E-02  9.48283796E-03
 SEAICE_LSR (ipass=   2) iters,dU,Resid=    10  5.77778903E-05  1.85921813E-04
 SEAICE_LSR (ipass=   2) iters,dV,Resid=    10  2.97775943E-05  5.86001177E-05
 cg2d: Sum(rhs),rhsMax =  -8.18151175010226E+00  1.24273898559440E+02
(PID.TID 0000.0001)      cg2d_init_res =   2.81548961590110E-01
(PID.TID 0000.0001)      cg2d_iters(min,last) =      -1       9
(PID.TID 0000.0001)      cg2d_last_res =   8.14125223385597E-08
(PID.TID 0000.0001) // =======================================================
(PID.TID 0000.0001) // Begin MONITOR dynamic field statistics
(PID.TID 0000.0001) // =======================================================
(PID.TID 0000.0001) %MON time_tsnumber                =                 72007
(PID.TID 0000.0001) %MON time_secondsf                =   6.4806300000000E+07
(PID.TID 0000.0001) %MON dynstat_eta_max              =   5.8257107701631E+00
(PID.TID 0000.0001) %MON dynstat_eta_min              =  -2.3302998513654E+00
(PID.TID 0000.0001) %MON dynstat_eta_mean             =   1.1814481167229E-02
(PID.TID 0000.0001) %MON dynstat_eta_sd               =   6.2309926551462E-01
(PID.TID 0000.0001) %MON dynstat_eta_del2             =   4.0815950777811E-03
(PID.TID 0000.0001) %MON dynstat_uvel_max             =   1.6131432758809E+00
(PID.TID 0000.0001) %MON dynstat_uvel_min             =  -7.9058461880339E-01
(PID.TID 0000.0001) %MON dynstat_uvel_mean            =  -3.0725465474769E-04
(PID.TID 0000.0001) %MON dynstat_uvel_sd              =   1.3628701771573E-02
(PID.TID 0000.0001) %MON dynstat_uvel_del2            =   1.3308578398643E-04
(PID.TID 0000.0001) %MON dynstat_vvel_max             =   1.2818847341128E+00
(PID.TID 0000.0001) %MON dynstat_vvel_min             =  -1.3949682067104E+00
(PID.TID 0000.0001) %MON dynstat_vvel_mean            =  -3.7660287832467E-04
(PID.TID 0000.0001) %MON dynstat_vvel_sd              =   1.4113684816796E-02
(PID.TID 0000.0001) %MON dynstat_vvel_del2            =   1.8307502111155E-04
(PID.TID 0000.0001) %MON dynstat_wvel_max             =   1.0369165371774E-04
(PID.TID 0000.0001) %MON dynstat_wvel_min             =  -5.3447030689979E-04
(PID.TID 0000.0001) %MON dynstat_wvel_mean            =  -4.2941608258776E-07
(PID.TID 0000.0001) %MON dynstat_wvel_sd              =   9.8204502060914E-06
(PID.TID 0000.0001) %MON dynstat_wvel_del2            =   8.9802093336118E-08
(PID.TID 0000.0001) %MON dynstat_theta_max            =   3.0924369270740E+01
(PID.TID 0000.0001) %MON dynstat_theta_min            =  -3.0128716917721E+00
(PID.TID 0000.0001) %MON dynstat_theta_mean           =   3.9089884249815E+00
(PID.TID 0000.0001) %MON dynstat_theta_sd             =   4.5708205917437E+00
(PID.TID 0000.0001) %MON dynstat_theta_del2           =   2.6515308715479E-03
(PID.TID 0000.0001) %MON dynstat_salt_max             =   4.1373639683007E+01
(PID.TID 0000.0001) %MON dynstat_salt_min             =   1.8518442467224E+01
(PID.TID 0000.0001) %MON dynstat_salt_mean            =   3.4772155958609E+01
(PID.TID 0000.0001) %MON dynstat_salt_sd              =   5.3100293528848E-01
(PID.TID 0000.0001) %MON dynstat_salt_del2            =   8.1246337379262E-04
(PID.TID 0000.0001) %MON dynstat_sst_max              =   3.0924369270740E+01
(PID.TID 0000.0001) %MON dynstat_sst_min              =  -1.9456281117333E+00
(PID.TID 0000.0001) %MON dynstat_sst_mean             =   1.8102216855398E+01
(PID.TID 0000.0001) %MON dynstat_sst_sd               =   9.8028704798458E+00
(PID.TID 0000.0001) %MON dynstat_sst_del2             =   1.5248972362559E-02
(PID.TID 0000.0001) %MON dynstat_sss_max              =   4.1373639683007E+01
(PID.TID 0000.0001) %MON dynstat_sss_min              =   1.8751385404441E+01
(PID.TID 0000.0001) %MON dynstat_sss_mean             =   3.4639001112023E+01
(PID.TID 0000.0001) %MON dynstat_sss_sd               =   1.4586964617530E+00
(PID.TID 0000.0001) %MON dynstat_sss_del2             =   8.1646531318690E-03
(PID.TID 0000.0001) %MON forcing_qnet_max             =   4.3523316406250E+04
(PID.TID 0000.0001) %MON forcing_qnet_min             =  -9.5832910156250E+03
(PID.TID 0000.0001) %MON forcing_qnet_mean            =  -1.4325958140799E+02
(PID.TID 0000.0001) %MON forcing_qnet_sd              =   9.6996965878414E+02
(PID.TID 0000.0001) %MON forcing_qnet_del2            =   3.8658538968566E+01
(PID.TID 0000.0001) %MON forcing_qsw_max              =   0.0000000000000E+00
(PID.TID 0000.0001) %MON forcing_qsw_min              =  -1.0555561558123E+02
(PID.TID 0000.0001) %MON forcing_qsw_mean             =  -2.1966504706715E+01
(PID.TID 0000.0001) %MON forcing_qsw_sd               =   2.9858628918226E+01
(PID.TID 0000.0001) %MON forcing_qsw_del2             =   1.6121561811058E-01
(PID.TID 0000.0001) %MON forcing_empmr_max            =   4.4972997158766E-02
(PID.TID 0000.0001) %MON forcing_empmr_min            =  -3.7781146168709E-01
(PID.TID 0000.0001) %MON forcing_empmr_mean           =  -5.4659279700764E-04
(PID.TID 0000.0001) %MON forcing_empmr_sd             =   9.2707760385694E-03
(PID.TID 0000.0001) %MON forcing_empmr_del2           =   3.7167880105604E-04
(PID.TID 0000.0001) %MON forcing_fu_max               =   6.3561936534428E-01
(PID.TID 0000.0001) %MON forcing_fu_min               =  -4.1703515044273E-01
(PID.TID 0000.0001) %MON forcing_fu_mean              =  -5.2406203249065E-03
(PID.TID 0000.0001) %MON forcing_fu_sd                =   7.6200342254164E-02
(PID.TID 0000.0001) %MON forcing_fu_del2              =   7.7656644366189E-04
(PID.TID 0000.0001) %MON forcing_fv_max               =   3.6433260695538E-01
(PID.TID 0000.0001) %MON forcing_fv_min               =  -3.6234377307408E-01
(PID.TID 0000.0001) %MON forcing_fv_mean              =  -1.3394057591592E-02
(PID.TID 0000.0001) %MON forcing_fv_sd                =   7.4180340460030E-02
(PID.TID 0000.0001) %MON forcing_fv_del2              =   6.5554019714017E-04
(PID.TID 0000.0001) %MON trAdv_CFL_u_max              =   5.1364473078420E-03
(PID.TID 0000.0001) %MON trAdv_CFL_v_max              =   7.4261640813978E-03
(PID.TID 0000.0001) %MON trAdv_CFL_w_max              =   6.8559367589303E-03
(PID.TID 0000.0001) %MON advcfl_uvel_max              =   5.3794563706096E-03
(PID.TID 0000.0001) %MON advcfl_vvel_max              =   4.1832574808181E-03
(PID.TID 0000.0001) %MON advcfl_wvel_max              =   1.3141268232594E-02
(PID.TID 0000.0001) %MON advcfl_W_hf_max              =   6.8559367589303E-03
(PID.TID 0000.0001) %MON pe_b_mean                    =   5.1740869241315E-04
(PID.TID 0000.0001) %MON ke_max                       =   1.2419385258023E+00
(PID.TID 0000.0001) %MON ke_mean                      =   1.7785275456420E-04
(PID.TID 0000.0001) %MON ke_vol                       =   1.3398065715411E+18
(PID.TID 0000.0001) %MON vort_r_min                   =  -4.6043306483638E-06
(PID.TID 0000.0001) %MON vort_r_max                   =   4.2472920636859E-06
(PID.TID 0000.0001) %MON vort_a_mean                  =  -2.0549865324846E-05
(PID.TID 0000.0001) %MON vort_a_sd                    =   7.5259528322186E-05
(PID.TID 0000.0001) %MON vort_p_mean                  =  -2.4783406279585E-05
(PID.TID 0000.0001) %MON vort_p_sd                    =   1.2811939562330E-04
(PID.TID 0000.0001) %MON surfExpan_theta_mean         =  -7.8691478991041E-06
(PID.TID 0000.0001) %MON surfExpan_salt_mean          =   1.1975832770113E-06
(PID.TID 0000.0001) // =======================================================
(PID.TID 0000.0001) // End MONITOR dynamic field statistics
(PID.TID 0000.0001) // =======================================================
(PID.TID 0000.0001) // =======================================================
(PID.TID 0000.0001) // Begin MONITOR SEAICE statistics
(PID.TID 0000.0001) // =======================================================
(PID.TID 0000.0001) %MON seaice_tsnumber              =                 72007
(PID.TID 0000.0001) %MON seaice_time_sec              =   6.4806300000000E+07
(PID.TID 0000.0001) %MON seaice_uice_max              =   1.4209263913570E+00
(PID.TID 0000.0001) %MON seaice_uice_min              =  -4.9423146038082E-01
(PID.TID 0000.0001) %MON seaice_uice_mean             =  -4.9766461345376E-03
(PID.TID 0000.0001) %MON seaice_uice_sd               =   6.4460385524822E-02
(PID.TID 0000.0001) %MON seaice_uice_del2             =   1.3248499353543E-03
(PID.TID 0000.0001) %MON seaice_vice_max              =   1.1462133808888E+00
(PID.TID 0000.0001) %MON seaice_vice_min              =  -1.2645899787461E+00
(PID.TID 0000.0001) %MON seaice_vice_mean             =  -1.0139500243558E-02
(PID.TID 0000.0001) %MON seaice_vice_sd               =   6.4851501562517E-02
(PID.TID 0000.0001) %MON seaice_vice_del2             =   1.8244751664206E-03
(PID.TID 0000.0001) %MON seaice_area_max              =   1.0000000000000E+00
(PID.TID 0000.0001) %MON seaice_area_min              =   0.0000000000000E+00
(PID.TID 0000.0001) %MON seaice_area_mean             =   6.9143011714105E-02
(PID.TID 0000.0001) %MON seaice_area_sd               =   2.3755643726299E-01
(PID.TID 0000.0001) %MON seaice_area_del2             =   1.7914624371569E-03
(PID.TID 0000.0001) %MON seaice_heff_max              =   8.4537580465350E+00
(PID.TID 0000.0001) %MON seaice_heff_min              =   0.0000000000000E+00
(PID.TID 0000.0001) %MON seaice_heff_mean             =   2.0580792215229E-01
(PID.TID 0000.0001) %MON seaice_heff_sd               =   9.7729743858511E-01
(PID.TID 0000.0001) %MON seaice_heff_del2             =   6.2307116905855E-03
(PID.TID 0000.0001) %MON seaice_hsnow_max             =   2.0315905820659E+00
(PID.TID 0000.0001) %MON seaice_hsnow_min             =   0.0000000000000E+00
(PID.TID 0000.0001) %MON seaice_hsnow_mean            =   2.2787477285959E-02
(PID.TID 0000.0001) %MON seaice_hsnow_sd              =   1.1957927820459E-01
(PID.TID 0000.0001) %MON seaice_hsnow_del2            =   1.4654841172947E-03
(PID.TID 0000.0001) // =======================================================
(PID.TID 0000.0001) // End MONITOR SEAICE statistics
(PID.TID 0000.0001) // =======================================================
 SEAICE_LSR: Residual Initial ipass,Uice,Vice=    1  1.25941120E-02  1.18356226E-02
 SEAICE_LSR (ipass=   1) iters,dU,Resid=    10  8.61227223E-05  3.29004443E-04
 SEAICE_LSR (ipass=   1) iters,dV,Resid=    10  4.64293281E-05  1.21467876E-04
 SEAICE_LSR: Residual Initial ipass,Uice,Vice=    2  9.31318641E-03  8.84984077E-03
 SEAICE_LSR (ipass=   2) iters,dU,Resid=    10  7.51167773E-05  3.13762306E-04
 SEAICE_LSR (ipass=   2) iters,dV,Resid=    10  2.71255040E-05  5.16025745E-05
 cg2d: Sum(rhs),rhsMax =  -9.63366166512270E+00  1.09671443852196E+02
(PID.TID 0000.0001)      cg2d_init_res =   3.07851512787648E-01
(PID.TID 0000.0001)      cg2d_iters(min,last) =      -1       9
(PID.TID 0000.0001)      cg2d_last_res =   9.29158074624279E-08
(PID.TID 0000.0001) // =======================================================
(PID.TID 0000.0001) // Begin MONITOR dynamic field statistics
(PID.TID 0000.0001) // =======================================================
(PID.TID 0000.0001) %MON time_tsnumber                =                 72008
(PID.TID 0000.0001) %MON time_secondsf                =   6.4807200000000E+07
(PID.TID 0000.0001) %MON dynstat_eta_max              =   5.1450322770969E+00
(PID.TID 0000.0001) %MON dynstat_eta_min              =  -2.6957155925501E+00
(PID.TID 0000.0001) %MON dynstat_eta_mean             =   1.2276826664796E-02
(PID.TID 0000.0001) %MON dynstat_eta_sd               =   6.1979349200000E-01
(PID.TID 0000.0001) %MON dynstat_eta_del2             =   3.4821778403588E-03
(PID.TID 0000.0001) %MON dynstat_uvel_max             =   1.7437747359925E+00
(PID.TID 0000.0001) %MON dynstat_uvel_min             =  -8.4695911301509E-01
(PID.TID 0000.0001) %MON dynstat_uvel_mean            =  -2.7561474995356E-04
(PID.TID 0000.0001) %MON dynstat_uvel_sd              =   1.3794818680476E-02
(PID.TID 0000.0001) %MON dynstat_uvel_del2            =   1.3806715341993E-04
(PID.TID 0000.0001) %MON dynstat_vvel_max             =   1.3487745308025E+00
(PID.TID 0000.0001) %MON dynstat_vvel_min             =  -1.4978125220902E+00
(PID.TID 0000.0001) %MON dynstat_vvel_mean            =  -3.8198179242078E-04
(PID.TID 0000.0001) %MON dynstat_vvel_sd              =   1.4228107788303E-02
(PID.TID 0000.0001) %MON dynstat_vvel_del2            =   1.8744080072230E-04
(PID.TID 0000.0001) %MON dynstat_wvel_max             =   1.0382362994588E-04
(PID.TID 0000.0001) %MON dynstat_wvel_min             =  -5.5025739828547E-04
(PID.TID 0000.0001) %MON dynstat_wvel_mean            =  -4.5275580036185E-07
(PID.TID 0000.0001) %MON dynstat_wvel_sd              =   9.3321808228979E-06
(PID.TID 0000.0001) %MON dynstat_wvel_del2            =   8.6710847502503E-08
(PID.TID 0000.0001) %MON dynstat_theta_max            =   3.0924126164540E+01
(PID.TID 0000.0001) %MON dynstat_theta_min            =  -3.0122110271202E+00
(PID.TID 0000.0001) %MON dynstat_theta_mean           =   3.9089994562632E+00
(PID.TID 0000.0001) %MON dynstat_theta_sd             =   4.5708630437366E+00
(PID.TID 0000.0001) %MON dynstat_theta_del2           =   2.6510359505052E-03
(PID.TID 0000.0001) %MON dynstat_salt_max             =   4.1372762315094E+01
(PID.TID 0000.0001) %MON dynstat_salt_min             =   1.8518452010187E+01
(PID.TID 0000.0001) %MON dynstat_salt_mean            =   3.4772148942869E+01
(PID.TID 0000.0001) %MON dynstat_salt_sd              =   5.3101849943894E-01
(PID.TID 0000.0001) %MON dynstat_salt_del2            =   8.1567944201288E-04
(PID.TID 0000.0001) %MON dynstat_sst_max              =   3.0924126164540E+01
(PID.TID 0000.0001) %MON dynstat_sst_min              =  -1.9454371572950E+00
(PID.TID 0000.0001) %MON dynstat_sst_mean             =   1.8102851176853E+01
(PID.TID 0000.0001) %MON dynstat_sst_sd               =   9.8032427651868E+00
(PID.TID 0000.0001) %MON dynstat_sst_del2             =   1.5236203218978E-02
(PID.TID 0000.0001) %MON dynstat_sss_max              =   4.1372762315094E+01
(PID.TID 0000.0001) %MON dynstat_sss_min              =   1.8751379291323E+01
(PID.TID 0000.0001) %MON dynstat_sss_mean             =   3.4638501851800E+01
(PID.TID 0000.0001) %MON dynstat_sss_sd               =   1.4590650430739E+00
(PID.TID 0000.0001) %MON dynstat_sss_del2             =   8.2148824380015E-03
(PID.TID 0000.0001) %MON forcing_qnet_max             =   1.4142377929688E+04
(PID.TID 0000.0001) %MON forcing_qnet_min             =  -1.1513065429688E+04
(PID.TID 0000.0001) %MON forcing_qnet_mean            =  -1.4082697650405E+02
(PID.TID 0000.0001) %MON forcing_qnet_sd              =   6.9883044487502E+02
(PID.TID 0000.0001) %MON forcing_qnet_del2            =   2.2529473582279E+01
(PID.TID 0000.0001) %MON forcing_qsw_max              =   0.0000000000000E+00
(PID.TID 0000.0001) %MON forcing_qsw_min              =  -1.0456631567519E+02
(PID.TID 0000.0001) %MON forcing_qsw_mean             =  -2.1862451130059E+01
(PID.TID 0000.0001) %MON forcing_qsw_sd               =   2.9777720503791E+01
(PID.TID 0000.0001) %MON forcing_qsw_del2             =   1.6231419408546E-01
(PID.TID 0000.0001) %MON forcing_empmr_max            =   4.1803330183029E-02
(PID.TID 0000.0001) %MON forcing_empmr_min            =  -3.2988429069519E-01
(PID.TID 0000.0001) %MON forcing_empmr_mean           =  -5.3169732220157E-04
(PID.TID 0000.0001) %MON forcing_empmr_sd             =   8.7297077572043E-03
(PID.TID 0000.0001) %MON forcing_empmr_del2           =   3.5176833257023E-04
(PID.TID 0000.0001) %MON forcing_fu_max               =   6.5934315999422E-01
(PID.TID 0000.0001) %MON forcing_fu_min               =  -3.9724785266338E-01
(PID.TID 0000.0001) %MON forcing_fu_mean              =  -5.2596111160447E-03
(PID.TID 0000.0001) %MON forcing_fu_sd                =   7.6244058682614E-02
(PID.TID 0000.0001) %MON forcing_fu_del2              =   7.7749198639797E-04
(PID.TID 0000.0001) %MON forcing_fv_max               =   3.5884714312960E-01
(PID.TID 0000.0001) %MON forcing_fv_min               =  -3.3688233977172E-01
(PID.TID 0000.0001) %MON forcing_fv_mean              =  -1.3297022778994E-02
(PID.TID 0000.0001) %MON forcing_fv_sd                =   7.4316379585863E-02
(PID.TID 0000.0001) %MON forcing_fv_del2              =   6.5556640885158E-04
(PID.TID 0000.0001) %MON trAdv_CFL_u_max              =   5.5813946454076E-03
(PID.TID 0000.0001) %MON trAdv_CFL_v_max              =   7.9940762327985E-03
(PID.TID 0000.0001) %MON trAdv_CFL_w_max              =   7.0564439098939E-03
(PID.TID 0000.0001) %MON advcfl_uvel_max              =   5.8150818050060E-03
(PID.TID 0000.0001) %MON advcfl_vvel_max              =   4.4885987478482E-03
(PID.TID 0000.0001) %MON advcfl_wvel_max              =   1.1474236198094E-02
(PID.TID 0000.0001) %MON advcfl_W_hf_max              =   7.0564439098939E-03
(PID.TID 0000.0001) %MON pe_b_mean                    =   5.1194990476216E-04
(PID.TID 0000.0001) %MON ke_max                       =   1.4347140741340E+00
(PID.TID 0000.0001) %MON ke_mean                      =   1.8144418608393E-04
(PID.TID 0000.0001) %MON ke_vol                       =   1.3398067444958E+18
(PID.TID 0000.0001) %MON vort_r_min                   =  -4.9437858639275E-06
(PID.TID 0000.0001) %MON vort_r_max                   =   4.4071300384543E-06
(PID.TID 0000.0001) %MON vort_a_mean                  =  -2.0549865324846E-05
(PID.TID 0000.0001) %MON vort_a_sd                    =   7.5259527924809E-05
(PID.TID 0000.0001) %MON vort_p_mean                  =  -2.4783401665981E-05
(PID.TID 0000.0001) %MON vort_p_sd                    =   1.2811934267001E-04
(PID.TID 0000.0001) %MON surfExpan_theta_mean         =  -7.9087023115948E-06
(PID.TID 0000.0001) %MON surfExpan_salt_mean          =   1.3041070118676E-06
(PID.TID 0000.0001) // =======================================================
(PID.TID 0000.0001) // End MONITOR dynamic field statistics
(PID.TID 0000.0001) // =======================================================
(PID.TID 0000.0001) // =======================================================
(PID.TID 0000.0001) // Begin MONITOR SEAICE statistics
(PID.TID 0000.0001) // =======================================================
(PID.TID 0000.0001) %MON seaice_tsnumber              =                 72008
(PID.TID 0000.0001) %MON seaice_time_sec              =   6.4807200000000E+07
(PID.TID 0000.0001) %MON seaice_uice_max              =   1.5715966592453E+00
(PID.TID 0000.0001) %MON seaice_uice_min              =  -5.5325783054234E-01
(PID.TID 0000.0001) %MON seaice_uice_mean             =  -4.7861889070356E-03
(PID.TID 0000.0001) %MON seaice_uice_sd               =   6.6712338657399E-02
(PID.TID 0000.0001) %MON seaice_uice_del2             =   1.4243852467962E-03
(PID.TID 0000.0001) %MON seaice_vice_max              =   1.2412195944175E+00
(PID.TID 0000.0001) %MON seaice_vice_min              =  -1.4039253881263E+00
(PID.TID 0000.0001) %MON seaice_vice_mean             =  -1.0371661349780E-02
(PID.TID 0000.0001) %MON seaice_vice_sd               =   6.6699261565311E-02
(PID.TID 0000.0001) %MON seaice_vice_del2             =   1.9383948260379E-03
(PID.TID 0000.0001) %MON seaice_area_max              =   1.0000000000000E+00
(PID.TID 0000.0001) %MON seaice_area_min              =   0.0000000000000E+00
(PID.TID 0000.0001) %MON seaice_area_mean             =   6.9170879525085E-02
(PID.TID 0000.0001) %MON seaice_area_sd               =   2.3764797281755E-01
(PID.TID 0000.0001) %MON seaice_area_del2             =   1.7903535817195E-03
(PID.TID 0000.0001) %MON seaice_heff_max              =   8.4568708312091E+00
(PID.TID 0000.0001) %MON seaice_heff_min              =   0.0000000000000E+00
(PID.TID 0000.0001) %MON seaice_heff_mean             =   2.0583365533750E-01
(PID.TID 0000.0001) %MON seaice_heff_sd               =   9.7744423323001E-01
(PID.TID 0000.0001) %MON seaice_heff_del2             =   6.2313549076616E-03
(PID.TID 0000.0001) %MON seaice_hsnow_max             =   2.0316117493989E+00
(PID.TID 0000.0001) %MON seaice_hsnow_min             =   0.0000000000000E+00
(PID.TID 0000.0001) %MON seaice_hsnow_mean            =   2.2787451221549E-02
(PID.TID 0000.0001) %MON seaice_hsnow_sd              =   1.1957861852767E-01
(PID.TID 0000.0001) %MON seaice_hsnow_del2            =   1.4654606080374E-03
(PID.TID 0000.0001) // =======================================================
(PID.TID 0000.0001) // End MONITOR SEAICE statistics
(PID.TID 0000.0001) // =======================================================
 Compute Stats, Diag. #    211  SIarea    vol(   0 ): 1.456E+15  Parms: SM      M1      
 Compute Stats, Diag. #    214  SIheff    vol(   0 ): 1.456E+15  Parms: SM      M1      
 Compute Stats, Diag. #    216  SIhsnow   vol(   0 ): 1.456E+15  Parms: SM      M1      
 Compute Stats, Diag. #     83  sIceLoad  vol(   0 ): 1.456E+15  Parms: SM      U1      
 Compute Stats, Diag. #    220  SIuice    vol(   0 ): 1.383E+15  Parms: UU      M1      
 Compute Stats, Diag. #    221  SIvice    vol(   0 ): 1.391E+15  Parms: VV      M1      
 Compute Stats, Diag. #    222  SItaux    vol(   0 ): 1.383E+15  Parms: UU      U1      
 Compute Stats, Diag. #    223  SItauy    vol(   0 ): 1.391E+15  Parms: VV      U1      
 SEAICE_LSR: Residual Initial ipass,Uice,Vice=    1  1.10791271E-02  1.07997373E-02
 SEAICE_LSR (ipass=   1) iters,dU,Resid=    12  6.74755578E-05  3.28405335E-04
 SEAICE_LSR (ipass=   1) iters,dV,Resid=    12  2.09068122E-05  8.05342516E-05
 SEAICE_LSR: Residual Initial ipass,Uice,Vice=    2  8.48332367E-03  8.47124411E-03
 SEAICE_LSR (ipass=   2) iters,dU,Resid=    10  8.51482509E-05  4.48505253E-04
 SEAICE_LSR (ipass=   2) iters,dV,Resid=    10  2.45622961E-05  4.18469744E-05
 cg2d: Sum(rhs),rhsMax =  -1.15930992155151E+01  9.44702190306118E+01
(PID.TID 0000.0001)      cg2d_init_res =   3.47238541979569E-01
(PID.TID 0000.0001)      cg2d_iters(min,last) =      -1      10
(PID.TID 0000.0001)      cg2d_last_res =   2.26354084624501E-08
(PID.TID 0000.0001) // =======================================================
(PID.TID 0000.0001) // Begin MONITOR dynamic field statistics
(PID.TID 0000.0001) // =======================================================
(PID.TID 0000.0001) %MON time_tsnumber                =                 72009
(PID.TID 0000.0001) %MON time_secondsf                =   6.4808100000000E+07
(PID.TID 0000.0001) %MON dynstat_eta_max              =   4.4361451742941E+00
(PID.TID 0000.0001) %MON dynstat_eta_min              =  -2.6956132134571E+00
(PID.TID 0000.0001) %MON dynstat_eta_mean             =   1.2726109277436E-02
(PID.TID 0000.0001) %MON dynstat_eta_sd               =   6.1690557070022E-01
(PID.TID 0000.0001) %MON dynstat_eta_del2             =   3.0158639608978E-03
(PID.TID 0000.0001) %MON dynstat_uvel_max             =   1.8473244266047E+00
(PID.TID 0000.0001) %MON dynstat_uvel_min             =  -8.9334210846086E-01
(PID.TID 0000.0001) %MON dynstat_uvel_mean            =  -2.4524262468362E-04
(PID.TID 0000.0001) %MON dynstat_uvel_sd              =   1.3943006990614E-02
(PID.TID 0000.0001) %MON dynstat_uvel_del2            =   1.4128512343609E-04
(PID.TID 0000.0001) %MON dynstat_vvel_max             =   1.3853108166521E+00
(PID.TID 0000.0001) %MON dynstat_vvel_min             =  -1.5711773880627E+00
(PID.TID 0000.0001) %MON dynstat_vvel_mean            =  -3.8907904816530E-04
(PID.TID 0000.0001) %MON dynstat_vvel_sd              =   1.4300897088659E-02
(PID.TID 0000.0001) %MON dynstat_vvel_del2            =   1.8806524572601E-04
(PID.TID 0000.0001) %MON dynstat_wvel_max             =   1.0399186856808E-04
(PID.TID 0000.0001) %MON dynstat_wvel_min             =  -5.5476166555436E-04
(PID.TID 0000.0001) %MON dynstat_wvel_mean            =  -4.6354224016657E-07
(PID.TID 0000.0001) %MON dynstat_wvel_sd              =   8.9365898170733E-06
(PID.TID 0000.0001) %MON dynstat_wvel_del2            =   8.3746750963266E-08
(PID.TID 0000.0001) %MON dynstat_theta_max            =   3.0923893004931E+01
(PID.TID 0000.0001) %MON dynstat_theta_min            =  -3.0116904400060E+00
(PID.TID 0000.0001) %MON dynstat_theta_mean           =   3.9090098409969E+00
(PID.TID 0000.0001) %MON dynstat_theta_sd             =   4.5709037375592E+00
(PID.TID 0000.0001) %MON dynstat_theta_del2           =   2.6505734460427E-03
(PID.TID 0000.0001) %MON dynstat_salt_max             =   4.1371845295253E+01
(PID.TID 0000.0001) %MON dynstat_salt_min             =   1.8518461582430E+01
(PID.TID 0000.0001) %MON dynstat_salt_mean            =   3.4772142069001E+01
(PID.TID 0000.0001) %MON dynstat_salt_sd              =   5.3103475872858E-01
(PID.TID 0000.0001) %MON dynstat_salt_del2            =   8.1921932435413E-04
(PID.TID 0000.0001) %MON dynstat_sst_max              =   3.0923893004931E+01
(PID.TID 0000.0001) %MON dynstat_sst_min              =  -1.9452480670065E+00
(PID.TID 0000.0001) %MON dynstat_sst_mean             =   1.8103431459993E+01
(PID.TID 0000.0001) %MON dynstat_sst_sd               =   9.8036280757895E+00
(PID.TID 0000.0001) %MON dynstat_sst_del2             =   1.5224281633332E-02
(PID.TID 0000.0001) %MON dynstat_sss_max              =   4.1371845295253E+01
(PID.TID 0000.0001) %MON dynstat_sss_min              =   1.8751378681639E+01
(PID.TID 0000.0001) %MON dynstat_sss_mean             =   3.4638009838186E+01
(PID.TID 0000.0001) %MON dynstat_sss_sd               =   1.4594517031657E+00
(PID.TID 0000.0001) %MON dynstat_sss_del2             =   8.2700824064102E-03
(PID.TID 0000.0001) %MON forcing_qnet_max             =   1.5030121093750E+04
(PID.TID 0000.0001) %MON forcing_qnet_min             =  -1.0492202148438E+04
(PID.TID 0000.0001) %MON forcing_qnet_mean            =  -1.3114937226165E+02
(PID.TID 0000.0001) %MON forcing_qnet_sd              =   6.4733858110502E+02
(PID.TID 0000.0001) %MON forcing_qnet_del2            =   1.9950595846748E+01
(PID.TID 0000.0001) %MON forcing_qsw_max              =   0.0000000000000E+00
(PID.TID 0000.0001) %MON forcing_qsw_min              =  -1.0601150848208E+02
(PID.TID 0000.0001) %MON forcing_qsw_mean             =  -2.2296676111269E+01
(PID.TID 0000.0001) %MON forcing_qsw_sd               =   3.0301349074103E+01
(PID.TID 0000.0001) %MON forcing_qsw_del2             =   1.5630221801205E-01
(PID.TID 0000.0001) %MON forcing_empmr_max            =   3.6668799817562E-02
(PID.TID 0000.0001) %MON forcing_empmr_min            =  -2.9140868782997E-01
(PID.TID 0000.0001) %MON forcing_empmr_mean           =  -5.1667500453549E-04
(PID.TID 0000.0001) %MON forcing_empmr_sd             =   8.2974554997070E-03
(PID.TID 0000.0001) %MON forcing_empmr_del2           =   3.3545986847251E-04
(PID.TID 0000.0001) %MON forcing_fu_max               =   6.8021419575040E-01
(PID.TID 0000.0001) %MON forcing_fu_min               =  -4.2460204422759E-01
(PID.TID 0000.0001) %MON forcing_fu_mean              =  -5.3170008489699E-03
(PID.TID 0000.0001) %MON forcing_fu_sd                =   7.6401554299322E-02
(PID.TID 0000.0001) %MON forcing_fu_del2              =   7.8030359867971E-04
(PID.TID 0000.0001) %MON forcing_fv_max               =   3.5503466290899E-01
(PID.TID 0000.0001) %MON forcing_fv_min               =  -3.2620028308719E-01
(PID.TID 0000.0001) %MON forcing_fv_mean              =  -1.3072087692164E-02
(PID.TID 0000.0001) %MON forcing_fv_sd                =   7.4679327076081E-02
(PID.TID 0000.0001) %MON forcing_fv_del2              =   6.5753149050901E-04
(PID.TID 0000.0001) %MON trAdv_CFL_u_max              =   5.9426114020274E-03
(PID.TID 0000.0001) %MON trAdv_CFL_v_max              =   8.4159536399771E-03
(PID.TID 0000.0001) %MON trAdv_CFL_w_max              =   7.1133579853930E-03
(PID.TID 0000.0001) %MON advcfl_uvel_max              =   6.1603958581138E-03
(PID.TID 0000.0001) %MON advcfl_vvel_max              =   4.7084563339501E-03
(PID.TID 0000.0001) %MON advcfl_wvel_max              =   1.0135954359303E-02
(PID.TID 0000.0001) %MON advcfl_W_hf_max              =   7.1133579853930E-03
(PID.TID 0000.0001) %MON pe_b_mean                    =   5.0720693713696E-04
(PID.TID 0000.0001) %MON ke_max                       =   1.5840878614219E+00
(PID.TID 0000.0001) %MON ke_mean                      =   1.8429171091577E-04
(PID.TID 0000.0001) %MON ke_vol                       =   1.3398069127372E+18
(PID.TID 0000.0001) %MON vort_r_min                   =  -5.1859391254034E-06
(PID.TID 0000.0001) %MON vort_r_max                   =   4.4539015014875E-06
(PID.TID 0000.0001) %MON vort_a_mean                  =  -2.0549865324846E-05
(PID.TID 0000.0001) %MON vort_a_sd                    =   7.5259527028015E-05
(PID.TID 0000.0001) %MON vort_p_mean                  =  -2.4783397166738E-05
(PID.TID 0000.0001) %MON vort_p_sd                    =   1.2811929382872E-04
(PID.TID 0000.0001) %MON surfExpan_theta_mean         =  -7.9003435317104E-06
(PID.TID 0000.0001) %MON surfExpan_salt_mean          =   1.3941310928337E-06
(PID.TID 0000.0001) // =======================================================
(PID.TID 0000.0001) // End MONITOR dynamic field statistics
(PID.TID 0000.0001) // =======================================================
(PID.TID 0000.0001) // =======================================================
(PID.TID 0000.0001) // Begin MONITOR SEAICE statistics
(PID.TID 0000.0001) // =======================================================
(PID.TID 0000.0001) %MON seaice_tsnumber              =                 72009
(PID.TID 0000.0001) %MON seaice_time_sec              =   6.4808100000000E+07
(PID.TID 0000.0001) %MON seaice_uice_max              =   1.6940200403628E+00
(PID.TID 0000.0001) %MON seaice_uice_min              =  -6.0014216901165E-01
(PID.TID 0000.0001) %MON seaice_uice_mean             =  -4.6326398888541E-03
(PID.TID 0000.0001) %MON seaice_uice_sd               =   6.8634130766515E-02
(PID.TID 0000.0001) %MON seaice_uice_del2             =   1.5004166099743E-03
(PID.TID 0000.0001) %MON seaice_vice_max              =   1.3052799816009E+00
(PID.TID 0000.0001) %MON seaice_vice_min              =  -1.5149183802066E+00
(PID.TID 0000.0001) %MON seaice_vice_mean             =  -1.0641474161297E-02
(PID.TID 0000.0001) %MON seaice_vice_sd               =   6.8124076771128E-02
(PID.TID 0000.0001) %MON seaice_vice_del2             =   2.0075963140493E-03
(PID.TID 0000.0001) %MON seaice_area_max              =   1.0000000000000E+00
(PID.TID 0000.0001) %MON seaice_area_min              =   0.0000000000000E+00
(PID.TID 0000.0001) %MON seaice_area_mean             =   6.9184281800448E-02
(PID.TID 0000.0001) %MON seaice_area_sd               =   2.3768581370559E-01
(PID.TID 0000.0001) %MON seaice_area_del2             =   1.7891013356815E-03
(PID.TID 0000.0001) %MON seaice_heff_max              =   8.4599235010217E+00
(PID.TID 0000.0001) %MON seaice_heff_min              =   0.0000000000000E+00
(PID.TID 0000.0001) %MON seaice_heff_mean             =   2.0585805815284E-01
(PID.TID 0000.0001) %MON seaice_heff_sd               =   9.7758561325368E-01
(PID.TID 0000.0001) %MON seaice_heff_del2             =   6.2319717602185E-03
(PID.TID 0000.0001) %MON seaice_hsnow_max             =   2.0316221044027E+00
(PID.TID 0000.0001) %MON seaice_hsnow_min             =   0.0000000000000E+00
(PID.TID 0000.0001) %MON seaice_hsnow_mean            =   2.2787183948249E-02
(PID.TID 0000.0001) %MON seaice_hsnow_sd              =   1.1957767277614E-01
(PID.TID 0000.0001) %MON seaice_hsnow_del2            =   1.4654274117062E-03
(PID.TID 0000.0001) // =======================================================
(PID.TID 0000.0001) // End MONITOR SEAICE statistics
(PID.TID 0000.0001) // =======================================================
 Computing Diagnostic #    211  SIarea       Counter:       1   Parms: SM      M1      
 Computing Diagnostic #    214  SIheff       Counter:       1   Parms: SM      M1      
 Computing Diagnostic #    216  SIhsnow      Counter:       1   Parms: SM      M1      
 Computing Diagnostic #     83  sIceLoad     Counter:       1   Parms: SM      U1      
 Computing Diagnostic #    220  SIuice       Counter:       1   Parms: UU      M1      
           Vector  Mate for  SIuice       Diagnostic #    221  SIvice   exists 
 Computing Diagnostic #    221  SIvice       Counter:       1   Parms: VV      M1      
           Vector  Mate for  SIvice       Diagnostic #    220  SIuice   exists 
 Computing Diagnostic #    222  SItaux       Counter:       1   Parms: UU      U1      
           Vector  Mate for  SItaux       Diagnostic #    223  SItauy   exists 
 Computing Diagnostic #    223  SItauy       Counter:       1   Parms: VV      U1      
           Vector  Mate for  SItauy       Diagnostic #    222  SItaux   exists 
 Computing Diagnostic #      1  SDIAG1       Counter:       1   Parms: SM      L1      
 Computing Diagnostic #    282  SIareaN      Counter:       1   Parms: SM      MX      
 Computing Diagnostic #    281  SIheffN      Counter:       1   Parms: SM      MX      
 Computing Diagnostic #    283  SIhsnowN     Counter:       1   Parms: SM      MX      
 SEAICE_LSR: Residual Initial ipass,Uice,Vice=    1  1.00717697E-02  1.00610003E-02
 SEAICE_LSR (ipass=   1) iters,dU,Resid=    12  7.50141999E-05  4.27444014E-04
 SEAICE_LSR (ipass=   1) iters,dV,Resid=    12  1.38503978E-05  6.06151874E-05
 SEAICE_LSR: Residual Initial ipass,Uice,Vice=    2  7.89581104E-03  7.99963908E-03
 SEAICE_LSR (ipass=   2) iters,dU,Resid=    10  8.78666035E-05  5.19507786E-04
 SEAICE_LSR (ipass=   2) iters,dV,Resid=    10  2.16661099E-05  2.94674362E-05
 cg2d: Sum(rhs),rhsMax =  -1.43479585087915E+01  7.89615562399684E+01
(PID.TID 0000.0001)      cg2d_init_res =   4.08979129452316E-01
(PID.TID 0000.0001)      cg2d_iters(min,last) =      -1      10
(PID.TID 0000.0001)      cg2d_last_res =   2.81562436573950E-08
(PID.TID 0000.0001) // =======================================================
(PID.TID 0000.0001) // Begin MONITOR dynamic field statistics
(PID.TID 0000.0001) // =======================================================
(PID.TID 0000.0001) %MON time_tsnumber                =                 72010
(PID.TID 0000.0001) %MON time_secondsf                =   6.4809000000000E+07
(PID.TID 0000.0001) %MON dynstat_eta_max              =   3.7126093074835E+00
(PID.TID 0000.0001) %MON dynstat_eta_min              =  -2.3912706307637E+00
(PID.TID 0000.0001) %MON dynstat_eta_mean             =   1.3164579287971E-02
(PID.TID 0000.0001) %MON dynstat_eta_sd               =   6.1448705886597E-01
(PID.TID 0000.0001) %MON dynstat_eta_del2             =   2.6888750152307E-03
(PID.TID 0000.0001) %MON dynstat_uvel_max             =   1.9245963965007E+00
(PID.TID 0000.0001) %MON dynstat_uvel_min             =  -9.2961664874993E-01
(PID.TID 0000.0001) %MON dynstat_uvel_mean            =  -2.1638608405758E-04
(PID.TID 0000.0001) %MON dynstat_uvel_sd              =   1.4071978053858E-02
(PID.TID 0000.0001) %MON dynstat_uvel_del2            =   1.4307374244069E-04
(PID.TID 0000.0001) %MON dynstat_vvel_max             =   1.3922655767284E+00
(PID.TID 0000.0001) %MON dynstat_vvel_min             =  -1.6146572052378E+00
(PID.TID 0000.0001) %MON dynstat_vvel_mean            =  -3.9721025527421E-04
(PID.TID 0000.0001) %MON dynstat_vvel_sd              =   1.4332559539903E-02
(PID.TID 0000.0001) %MON dynstat_vvel_del2            =   1.8554678810515E-04
(PID.TID 0000.0001) %MON dynstat_wvel_max             =   1.0416603394215E-04
(PID.TID 0000.0001) %MON dynstat_wvel_min             =  -5.5014075253965E-04
(PID.TID 0000.0001) %MON dynstat_wvel_mean            =  -4.6502569147878E-07
(PID.TID 0000.0001) %MON dynstat_wvel_sd              =   8.6969896098977E-06
(PID.TID 0000.0001) %MON dynstat_wvel_del2            =   8.1460202867686E-08
(PID.TID 0000.0001) %MON dynstat_theta_max            =   3.0923665548951E+01
(PID.TID 0000.0001) %MON dynstat_theta_min            =  -3.0112889641257E+00
(PID.TID 0000.0001) %MON dynstat_theta_mean           =   3.9090195132123E+00
(PID.TID 0000.0001) %MON dynstat_theta_sd             =   4.5709425326111E+00
(PID.TID 0000.0001) %MON dynstat_theta_del2           =   2.6501371476743E-03
(PID.TID 0000.0001) %MON dynstat_salt_max             =   4.1370901605838E+01
(PID.TID 0000.0001) %MON dynstat_salt_min             =   1.8518471201791E+01
(PID.TID 0000.0001) %MON dynstat_salt_mean            =   3.4772135376274E+01
(PID.TID 0000.0001) %MON dynstat_salt_sd              =   5.3105153812982E-01
(PID.TID 0000.0001) %MON dynstat_salt_del2            =   8.2304679056575E-04
(PID.TID 0000.0001) %MON dynstat_sst_max              =   3.0923665548951E+01
(PID.TID 0000.0001) %MON dynstat_sst_min              =  -1.9450617072502E+00
(PID.TID 0000.0001) %MON dynstat_sst_mean             =   1.8103959030687E+01
(PID.TID 0000.0001) %MON dynstat_sst_sd               =   9.8040340571715E+00
(PID.TID 0000.0001) %MON dynstat_sst_del2             =   1.5212936976786E-02
(PID.TID 0000.0001) %MON dynstat_sss_max              =   4.1370901605838E+01
(PID.TID 0000.0001) %MON dynstat_sss_min              =   1.8751379169104E+01
(PID.TID 0000.0001) %MON dynstat_sss_mean             =   3.4637530355307E+01
(PID.TID 0000.0001) %MON dynstat_sss_sd               =   1.4598559103713E+00
(PID.TID 0000.0001) %MON dynstat_sss_del2             =   8.3296557217329E-03
(PID.TID 0000.0001) %MON forcing_qnet_max             =   9.1085849609375E+03
(PID.TID 0000.0001) %MON forcing_qnet_min             =  -1.3518057617188E+04
(PID.TID 0000.0001) %MON forcing_qnet_mean            =  -1.2017070174976E+02
(PID.TID 0000.0001) %MON forcing_qnet_sd              =   6.0414137533810E+02
(PID.TID 0000.0001) %MON forcing_qnet_del2            =   1.8644744083812E+01
(PID.TID 0000.0001) %MON forcing_qsw_max              =   0.0000000000000E+00
(PID.TID 0000.0001) %MON forcing_qsw_min              =  -1.0709063897086E+02
(PID.TID 0000.0001) %MON forcing_qsw_mean             =  -2.2206873769052E+01
(PID.TID 0000.0001) %MON forcing_qsw_sd               =   3.0247700431739E+01
(PID.TID 0000.0001) %MON forcing_qsw_del2             =   1.5881549463777E-01
(PID.TID 0000.0001) %MON forcing_empmr_max            =   2.8423909097910E-02
(PID.TID 0000.0001) %MON forcing_empmr_min            =  -2.6047077775002E-01
(PID.TID 0000.0001) %MON forcing_empmr_mean           =  -5.0424051211552E-04
(PID.TID 0000.0001) %MON forcing_empmr_sd             =   7.9522871524812E-03
(PID.TID 0000.0001) %MON forcing_empmr_del2           =   3.2215559609104E-04
(PID.TID 0000.0001) %MON forcing_fu_max               =   6.9339523996192E-01
(PID.TID 0000.0001) %MON forcing_fu_min               =  -4.4969059259790E-01
(PID.TID 0000.0001) %MON forcing_fu_mean              =  -5.3009533056494E-03
(PID.TID 0000.0001) %MON forcing_fu_sd                =   7.6491860023785E-02
(PID.TID 0000.0001) %MON forcing_fu_del2              =   7.8307450784098E-04
(PID.TID 0000.0001) %MON forcing_fv_max               =   3.6341080967526E-01
(PID.TID 0000.0001) %MON forcing_fv_min               =  -3.3076612707337E-01
(PID.TID 0000.0001) %MON forcing_fv_mean              =  -1.2779739797446E-02
(PID.TID 0000.0001) %MON forcing_fv_sd                =   7.5054208899159E-02
(PID.TID 0000.0001) %MON forcing_fv_del2              =   6.6033635901638E-04
(PID.TID 0000.0001) %MON trAdv_CFL_u_max              =   6.2204769254270E-03
(PID.TID 0000.0001) %MON trAdv_CFL_v_max              =   8.6889660804999E-03
(PID.TID 0000.0001) %MON trAdv_CFL_w_max              =   7.0544870765349E-03
(PID.TID 0000.0001) %MON advcfl_uvel_max              =   6.4180798449871E-03
(PID.TID 0000.0001) %MON advcfl_vvel_max              =   4.8387553200051E-03
(PID.TID 0000.0001) %MON advcfl_wvel_max              =   9.0598531391310E-03
(PID.TID 0000.0001) %MON advcfl_W_hf_max              =   7.0544870765349E-03
(PID.TID 0000.0001) %MON pe_b_mean                    =   5.0325458256090E-04
(PID.TID 0000.0001) %MON ke_max                       =   1.6815526017383E+00
(PID.TID 0000.0001) %MON ke_mean                      =   1.8636934290174E-04
(PID.TID 0000.0001) %MON ke_vol                       =   1.3398070762251E+18
(PID.TID 0000.0001) %MON vort_r_min                   =  -5.6709668274717E-06
(PID.TID 0000.0001) %MON vort_r_max                   =   4.3924137744199E-06
(PID.TID 0000.0001) %MON vort_a_mean                  =  -2.0549865324846E-05
(PID.TID 0000.0001) %MON vort_a_sd                    =   7.5259525745025E-05
(PID.TID 0000.0001) %MON vort_p_mean                  =  -2.4783392810792E-05
(PID.TID 0000.0001) %MON vort_p_sd                    =   1.2811925051740E-04
(PID.TID 0000.0001) %MON surfExpan_theta_mean         =  -7.8510252935137E-06
(PID.TID 0000.0001) %MON surfExpan_salt_mean          =   1.4672353884167E-06
(PID.TID 0000.0001) // =======================================================
(PID.TID 0000.0001) // End MONITOR dynamic field statistics
(PID.TID 0000.0001) // =======================================================
(PID.TID 0000.0001) // =======================================================
(PID.TID 0000.0001) // Begin MONITOR SEAICE statistics
(PID.TID 0000.0001) // =======================================================
(PID.TID 0000.0001) %MON seaice_tsnumber              =                 72010
(PID.TID 0000.0001) %MON seaice_time_sec              =   6.4809000000000E+07
(PID.TID 0000.0001) %MON seaice_uice_max              =   1.7880412391352E+00
(PID.TID 0000.0001) %MON seaice_uice_min              =  -6.3262909103833E-01
(PID.TID 0000.0001) %MON seaice_uice_mean             =  -4.5091514739791E-03
(PID.TID 0000.0001) %MON seaice_uice_sd               =   7.0212198269100E-02
(PID.TID 0000.0001) %MON seaice_uice_del2             =   1.5545868870715E-03
(PID.TID 0000.0001) %MON seaice_vice_max              =   1.3390588146795E+00
(PID.TID 0000.0001) %MON seaice_vice_min              =  -1.5962937194839E+00
(PID.TID 0000.0001) %MON seaice_vice_mean             =  -1.0903300211493E-02
(PID.TID 0000.0001) %MON seaice_vice_sd               =   6.9094143796067E-02
(PID.TID 0000.0001) %MON seaice_vice_del2             =   2.0361954260387E-03
(PID.TID 0000.0001) %MON seaice_area_max              =   1.0000000000000E+00
(PID.TID 0000.0001) %MON seaice_area_min              =   0.0000000000000E+00
(PID.TID 0000.0001) %MON seaice_area_mean             =   6.9197214093986E-02
(PID.TID 0000.0001) %MON seaice_area_sd               =   2.3772422901368E-01
(PID.TID 0000.0001) %MON seaice_area_del2             =   1.7880425417297E-03
(PID.TID 0000.0001) %MON seaice_heff_max              =   8.4628884453048E+00
(PID.TID 0000.0001) %MON seaice_heff_min              =   0.0000000000000E+00
(PID.TID 0000.0001) %MON seaice_heff_mean             =   2.0588105727184E-01
(PID.TID 0000.0001) %MON seaice_heff_sd               =   9.7772118162044E-01
(PID.TID 0000.0001) %MON seaice_heff_del2             =   6.2325550089877E-03
(PID.TID 0000.0001) %MON seaice_hsnow_max             =   2.0316238395232E+00
(PID.TID 0000.0001) %MON seaice_hsnow_min             =   0.0000000000000E+00
(PID.TID 0000.0001) %MON seaice_hsnow_mean            =   2.2786818482287E-02
(PID.TID 0000.0001) %MON seaice_hsnow_sd              =   1.1957658474454E-01
(PID.TID 0000.0001) %MON seaice_hsnow_del2            =   1.4653920320166E-03
(PID.TID 0000.0001) // =======================================================
(PID.TID 0000.0001) // End MONITOR SEAICE statistics
(PID.TID 0000.0001) // =======================================================
 SEAICE_LSR: Residual Initial ipass,Uice,Vice=    1  9.13829117E-03  9.19286983E-03
 SEAICE_LSR (ipass=   1) iters,dU,Resid=    12  7.53286707E-05  4.60828699E-04
 SEAICE_LSR (ipass=   1) iters,dV,Resid=    12  2.81037359E-05  2.28410540E-05
 SEAICE_LSR: Residual Initial ipass,Uice,Vice=    2  7.44617197E-03  7.48299801E-03
 SEAICE_LSR (ipass=   2) iters,dU,Resid=    10  8.53968054E-05  5.32660484E-04
 SEAICE_LSR (ipass=   2) iters,dV,Resid=    10  6.74871572E-05  5.82054342E-05
 cg2d: Sum(rhs),rhsMax =  -1.84476676082305E+01  6.34234409757752E+01
(PID.TID 0000.0001)      cg2d_init_res =   5.05669792562008E-01
(PID.TID 0000.0001)      cg2d_iters(min,last) =      -1      10
(PID.TID 0000.0001)      cg2d_last_res =   4.00442562468184E-08
(PID.TID 0000.0001) // =======================================================
(PID.TID 0000.0001) // Begin MONITOR dynamic field statistics
(PID.TID 0000.0001) // =======================================================
(PID.TID 0000.0001) %MON time_tsnumber                =                 72011
(PID.TID 0000.0001) %MON time_secondsf                =   6.4809900000000E+07
(PID.TID 0000.0001) %MON dynstat_eta_max              =   2.9873740808595E+00
(PID.TID 0000.0001) %MON dynstat_eta_min              =  -1.8627284093762E+00
(PID.TID 0000.0001) %MON dynstat_eta_mean             =   1.3595414050750E-02
(PID.TID 0000.0001) %MON dynstat_eta_sd               =   6.1263776383016E-01
(PID.TID 0000.0001) %MON dynstat_eta_del2             =   2.5012426567182E-03
(PID.TID 0000.0001) %MON dynstat_uvel_max             =   1.9766747635811E+00
(PID.TID 0000.0001) %MON dynstat_uvel_min             =  -9.5580985843446E-01
(PID.TID 0000.0001) %MON dynstat_uvel_mean            =  -1.8902185391904E-04
(PID.TID 0000.0001) %MON dynstat_uvel_sd              =   1.4172746583155E-02
(PID.TID 0000.0001) %MON dynstat_uvel_del2            =   1.4360552104746E-04
(PID.TID 0000.0001) %MON dynstat_vvel_max             =   1.3708941951477E+00
(PID.TID 0000.0001) %MON dynstat_vvel_min             =  -1.6284524235623E+00
(PID.TID 0000.0001) %MON dynstat_vvel_mean            =  -4.0562324014234E-04
(PID.TID 0000.0001) %MON dynstat_vvel_sd              =   1.4324592784281E-02
(PID.TID 0000.0001) %MON dynstat_vvel_del2            =   1.8046946240070E-04
(PID.TID 0000.0001) %MON dynstat_wvel_max             =   1.0434037038084E-04
(PID.TID 0000.0001) %MON dynstat_wvel_min             =  -5.3852334407761E-04
(PID.TID 0000.0001) %MON dynstat_wvel_mean            =  -4.6066327944095E-07
(PID.TID 0000.0001) %MON dynstat_wvel_sd              =   8.5968322679668E-06
(PID.TID 0000.0001) %MON dynstat_wvel_del2            =   8.0096756946257E-08
(PID.TID 0000.0001) %MON dynstat_theta_max            =   3.0923445079238E+01
(PID.TID 0000.0001) %MON dynstat_theta_min            =  -3.0109678018425E+00
(PID.TID 0000.0001) %MON dynstat_theta_mean           =   3.9090281249342E+00
(PID.TID 0000.0001) %MON dynstat_theta_sd             =   4.5709780493178E+00
(PID.TID 0000.0001) %MON dynstat_theta_del2           =   2.6496626101716E-03
(PID.TID 0000.0001) %MON dynstat_salt_max             =   4.1369943950483E+01
(PID.TID 0000.0001) %MON dynstat_salt_min             =   1.8518480877366E+01
(PID.TID 0000.0001) %MON dynstat_salt_mean            =   3.4772128742056E+01
(PID.TID 0000.0001) %MON dynstat_salt_sd              =   5.3106863666887E-01
(PID.TID 0000.0001) %MON dynstat_salt_del2            =   8.2711040486587E-04
(PID.TID 0000.0001) %MON dynstat_sst_max              =   3.0923445079238E+01
(PID.TID 0000.0001) %MON dynstat_sst_min              =  -1.9448767085764E+00
(PID.TID 0000.0001) %MON dynstat_sst_mean             =   1.8104399991126E+01
(PID.TID 0000.0001) %MON dynstat_sst_sd               =   9.8044448876555E+00
(PID.TID 0000.0001) %MON dynstat_sst_del2             =   1.5200703221707E-02
(PID.TID 0000.0001) %MON dynstat_sss_max              =   4.1369943950483E+01
(PID.TID 0000.0001) %MON dynstat_sss_min              =   1.8751379928624E+01
(PID.TID 0000.0001) %MON dynstat_sss_mean             =   3.4637051193865E+01
(PID.TID 0000.0001) %MON dynstat_sss_sd               =   1.4602660845016E+00
(PID.TID 0000.0001) %MON dynstat_sss_del2             =   8.3927772411268E-03
(PID.TID 0000.0001) %MON forcing_qnet_max             =   9.3296396484375E+03
(PID.TID 0000.0001) %MON forcing_qnet_min             =  -6.6507734375000E+03
(PID.TID 0000.0001) %MON forcing_qnet_mean            =  -1.0303372843648E+02
(PID.TID 0000.0001) %MON forcing_qnet_sd              =   5.6326151355080E+02
(PID.TID 0000.0001) %MON forcing_qnet_del2            =   1.6554025632348E+01
(PID.TID 0000.0001) %MON forcing_qsw_max              =   0.0000000000000E+00
(PID.TID 0000.0001) %MON forcing_qsw_min              =  -1.0771678191254E+02
(PID.TID 0000.0001) %MON forcing_qsw_mean             =  -2.2048732832703E+01
(PID.TID 0000.0001) %MON forcing_qsw_sd               =   3.0137007522564E+01
(PID.TID 0000.0001) %MON forcing_qsw_del2             =   1.6124083847028E-01
(PID.TID 0000.0001) %MON forcing_empmr_max            =   1.6643665730953E-02
(PID.TID 0000.0001) %MON forcing_empmr_min            =  -2.3750297725201E-01
(PID.TID 0000.0001) %MON forcing_empmr_mean           =  -4.9545997719593E-04
(PID.TID 0000.0001) %MON forcing_empmr_sd             =   7.6843944868881E-03
(PID.TID 0000.0001) %MON forcing_empmr_del2           =   3.1177483699578E-04
(PID.TID 0000.0001) %MON forcing_fu_max               =   6.9904020486570E-01
(PID.TID 0000.0001) %MON forcing_fu_min               =  -4.6214435738974E-01
(PID.TID 0000.0001) %MON forcing_fu_mean              =  -5.2096181204325E-03
(PID.TID 0000.0001) %MON forcing_fu_sd                =   7.6349982095168E-02
(PID.TID 0000.0001) %MON forcing_fu_del2              =   7.8375663863830E-04
(PID.TID 0000.0001) %MON forcing_fv_max               =   3.6009086893149E-01
(PID.TID 0000.0001) %MON forcing_fv_min               =  -3.3670547145700E-01
(PID.TID 0000.0001) %MON forcing_fv_mean              =  -1.2522564447607E-02
(PID.TID 0000.0001) %MON forcing_fv_sd                =   7.5119951893292E-02
(PID.TID 0000.0001) %MON forcing_fv_del2              =   6.6242133817333E-04
(PID.TID 0000.0001) %MON trAdv_CFL_u_max              =   6.4166107664326E-03
(PID.TID 0000.0001) %MON trAdv_CFL_v_max              =   8.8121641390046E-03
(PID.TID 0000.0001) %MON trAdv_CFL_w_max              =   6.9070407136043E-03
(PID.TID 0000.0001) %MON advcfl_uvel_max              =   6.5917490458266E-03
(PID.TID 0000.0001) %MON advcfl_vvel_max              =   4.8800964082819E-03
(PID.TID 0000.0001) %MON advcfl_wvel_max              =   8.2609731218089E-03
(PID.TID 0000.0001) %MON advcfl_W_hf_max              =   6.9070407136043E-03
(PID.TID 0000.0001) %MON pe_b_mean                    =   5.0024674425949E-04
(PID.TID 0000.0001) %MON ke_max                       =   1.7226647822457E+00
(PID.TID 0000.0001) %MON ke_mean                      =   1.8756913238314E-04
(PID.TID 0000.0001) %MON ke_vol                       =   1.3398072357786E+18
(PID.TID 0000.0001) %MON vort_r_min                   =  -6.3615344648717E-06
(PID.TID 0000.0001) %MON vort_r_max                   =   4.2290049804728E-06
(PID.TID 0000.0001) %MON vort_a_mean                  =  -2.0549865324846E-05
(PID.TID 0000.0001) %MON vort_a_sd                    =   7.5259524187231E-05
(PID.TID 0000.0001) %MON vort_p_mean                  =  -2.4783388605485E-05
(PID.TID 0000.0001) %MON vort_p_sd                    =   1.2811921361268E-04
(PID.TID 0000.0001) %MON surfExpan_theta_mean         =  -7.8006709450372E-06
(PID.TID 0000.0001) %MON surfExpan_salt_mean          =   1.5242137162653E-06
(PID.TID 0000.0001) // =======================================================
(PID.TID 0000.0001) // End MONITOR dynamic field statistics
(PID.TID 0000.0001) // =======================================================
(PID.TID 0000.0001) // =======================================================
(PID.TID 0000.0001) // Begin MONITOR SEAICE statistics
(PID.TID 0000.0001) // =======================================================
(PID.TID 0000.0001) %MON seaice_tsnumber              =                 72011
(PID.TID 0000.0001) %MON seaice_time_sec              =   6.4809900000000E+07
(PID.TID 0000.0001) %MON seaice_uice_max              =   1.8545779527979E+00
(PID.TID 0000.0001) %MON seaice_uice_min              =  -6.5001505969192E-01
(PID.TID 0000.0001) %MON seaice_uice_mean             =  -4.3936200686866E-03
(PID.TID 0000.0001) %MON seaice_uice_sd               =   7.1360292933749E-02
(PID.TID 0000.0001) %MON seaice_uice_del2             =   1.5869063299875E-03
(PID.TID 0000.0001) %MON seaice_vice_max              =   1.3435764691880E+00
(PID.TID 0000.0001) %MON seaice_vice_min              =  -1.6466588498206E+00
(PID.TID 0000.0001) %MON seaice_vice_mean             =  -1.1142923483039E-02
(PID.TID 0000.0001) %MON seaice_vice_sd               =   6.9560573392676E-02
(PID.TID 0000.0001) %MON seaice_vice_del2             =   2.0276047701029E-03
(PID.TID 0000.0001) %MON seaice_area_max              =   1.0000000000000E+00
(PID.TID 0000.0001) %MON seaice_area_min              =   0.0000000000000E+00
(PID.TID 0000.0001) %MON seaice_area_mean             =   6.9209659358522E-02
(PID.TID 0000.0001) %MON seaice_area_sd               =   2.3776308475458E-01
(PID.TID 0000.0001) %MON seaice_area_del2             =   1.7871734855488E-03
(PID.TID 0000.0001) %MON seaice_heff_max              =   8.4657677462793E+00
(PID.TID 0000.0001) %MON seaice_heff_min              =   0.0000000000000E+00
(PID.TID 0000.0001) %MON seaice_heff_mean             =   2.0590266938313E-01
(PID.TID 0000.0001) %MON seaice_heff_sd               =   9.7785099139225E-01
(PID.TID 0000.0001) %MON seaice_heff_del2             =   6.2330824297937E-03
(PID.TID 0000.0001) %MON seaice_hsnow_max             =   2.0316203513810E+00
(PID.TID 0000.0001) %MON seaice_hsnow_min             =   0.0000000000000E+00
(PID.TID 0000.0001) %MON seaice_hsnow_mean            =   2.2786428811782E-02
(PID.TID 0000.0001) %MON seaice_hsnow_sd              =   1.1957528262848E-01
(PID.TID 0000.0001) %MON seaice_hsnow_del2            =   1.4653419218289E-03
(PID.TID 0000.0001) // =======================================================
(PID.TID 0000.0001) // End MONITOR SEAICE statistics
(PID.TID 0000.0001) // =======================================================
 SEAICE_LSR: Residual Initial ipass,Uice,Vice=    1  8.55891214E-03  8.61313942E-03
 SEAICE_LSR (ipass=   1) iters,dU,Resid=    12  7.10456266E-05  4.52066815E-04
 SEAICE_LSR (ipass=   1) iters,dV,Resid=    12  6.37713933E-05  2.02106897E-05
 SEAICE_LSR: Residual Initial ipass,Uice,Vice=    2  7.17180053E-03  7.17716030E-03
 SEAICE_LSR (ipass=   2) iters,dU,Resid=    10  7.94223071E-05  5.13525002E-04
 SEAICE_LSR (ipass=   2) iters,dV,Resid=    10  6.79673564E-05  8.40481654E-05
 cg2d: Sum(rhs),rhsMax =  -1.93284209094647E+01  6.24290024733510E+01
(PID.TID 0000.0001)      cg2d_init_res =   5.08668977541865E-01
(PID.TID 0000.0001)      cg2d_iters(min,last) =      -1      10
(PID.TID 0000.0001)      cg2d_last_res =   5.06560024085475E-08
(PID.TID 0000.0001) // =======================================================
(PID.TID 0000.0001) // Begin MONITOR dynamic field statistics
(PID.TID 0000.0001) // =======================================================
(PID.TID 0000.0001) %MON time_tsnumber                =                 72012
(PID.TID 0000.0001) %MON time_secondsf                =   6.4810800000000E+07
(PID.TID 0000.0001) %MON dynstat_eta_max              =   2.8695210361668E+00
(PID.TID 0000.0001) %MON dynstat_eta_min              =  -1.6139653273447E+00
(PID.TID 0000.0001) %MON dynstat_eta_mean             =   1.4021159940242E-02
(PID.TID 0000.0001) %MON dynstat_eta_sd               =   6.1146051277154E-01
(PID.TID 0000.0001) %MON dynstat_eta_del2             =   2.4497825149900E-03
(PID.TID 0000.0001) %MON dynstat_uvel_max             =   2.0047458632346E+00
(PID.TID 0000.0001) %MON dynstat_uvel_min             =  -9.7213071552989E-01
(PID.TID 0000.0001) %MON dynstat_uvel_mean            =  -1.6296419605216E-04
(PID.TID 0000.0001) %MON dynstat_uvel_sd              =   1.4233808150251E-02
(PID.TID 0000.0001) %MON dynstat_uvel_del2            =   1.4292983671533E-04
(PID.TID 0000.0001) %MON dynstat_vvel_max             =   1.3425884937305E+00
(PID.TID 0000.0001) %MON dynstat_vvel_min             =  -1.6133384963344E+00
(PID.TID 0000.0001) %MON dynstat_vvel_mean            =  -4.1357196018612E-04
(PID.TID 0000.0001) %MON dynstat_vvel_sd              =   1.4280786315984E-02
(PID.TID 0000.0001) %MON dynstat_vvel_del2            =   1.7338567583180E-04
(PID.TID 0000.0001) %MON dynstat_wvel_max             =   1.0452516271109E-04
(PID.TID 0000.0001) %MON dynstat_wvel_min             =  -5.3614081132594E-04
(PID.TID 0000.0001) %MON dynstat_wvel_mean            =  -4.5246705339869E-07
(PID.TID 0000.0001) %MON dynstat_wvel_sd              =   8.5747430260037E-06
(PID.TID 0000.0001) %MON dynstat_wvel_del2            =   7.9560936118285E-08
(PID.TID 0000.0001) %MON dynstat_theta_max            =   3.0923231586968E+01
(PID.TID 0000.0001) %MON dynstat_theta_min            =  -3.0106813018857E+00
(PID.TID 0000.0001) %MON dynstat_theta_mean           =   3.9090359213286E+00
(PID.TID 0000.0001) %MON dynstat_theta_sd             =   4.5710111267280E+00
(PID.TID 0000.0001) %MON dynstat_theta_del2           =   2.6492387937478E-03
(PID.TID 0000.0001) %MON dynstat_salt_max             =   4.1368983830247E+01
(PID.TID 0000.0001) %MON dynstat_salt_min             =   1.8518490610419E+01
(PID.TID 0000.0001) %MON dynstat_salt_mean            =   3.4772122247449E+01
(PID.TID 0000.0001) %MON dynstat_salt_sd              =   5.3108607431154E-01
(PID.TID 0000.0001) %MON dynstat_salt_del2            =   8.3140558443757E-04
(PID.TID 0000.0001) %MON dynstat_sst_max              =   3.0923231586968E+01
(PID.TID 0000.0001) %MON dynstat_sst_min              =  -1.9446927540479E+00
(PID.TID 0000.0001) %MON dynstat_sst_mean             =   1.8104784290385E+01
(PID.TID 0000.0001) %MON dynstat_sst_sd               =   9.8048578098962E+00
(PID.TID 0000.0001) %MON dynstat_sst_del2             =   1.5189113214251E-02
(PID.TID 0000.0001) %MON dynstat_sss_max              =   4.1368983830247E+01
(PID.TID 0000.0001) %MON dynstat_sss_min              =   1.8751380799345E+01
(PID.TID 0000.0001) %MON dynstat_sss_mean             =   3.4636581469759E+01
(PID.TID 0000.0001) %MON dynstat_sss_sd               =   1.4606865124711E+00
(PID.TID 0000.0001) %MON dynstat_sss_del2             =   8.4592736792551E-03
(PID.TID 0000.0001) %MON forcing_qnet_max             =   9.9338017578125E+03
(PID.TID 0000.0001) %MON forcing_qnet_min             =  -5.7936440429688E+03
(PID.TID 0000.0001) %MON forcing_qnet_mean            =  -8.9899915654686E+01
(PID.TID 0000.0001) %MON forcing_qnet_sd              =   5.5941841444931E+02
(PID.TID 0000.0001) %MON forcing_qnet_del2            =   1.6236919292643E+01
(PID.TID 0000.0001) %MON forcing_qsw_max              =   0.0000000000000E+00
(PID.TID 0000.0001) %MON forcing_qsw_min              =  -1.0788696289006E+02
(PID.TID 0000.0001) %MON forcing_qsw_mean             =  -2.1825696710701E+01
(PID.TID 0000.0001) %MON forcing_qsw_sd               =   2.9969060696934E+01
(PID.TID 0000.0001) %MON forcing_qsw_del2             =   1.6354287205210E-01
(PID.TID 0000.0001) %MON forcing_empmr_max            =   1.3263797387481E-02
(PID.TID 0000.0001) %MON forcing_empmr_min            =  -2.2187946736813E-01
(PID.TID 0000.0001) %MON forcing_empmr_mean           =  -4.8960777291544E-04
(PID.TID 0000.0001) %MON forcing_empmr_sd             =   7.4911572948565E-03
(PID.TID 0000.0001) %MON forcing_empmr_del2           =   3.0430561162787E-04
(PID.TID 0000.0001) %MON forcing_fu_max               =   7.0524520555985E-01
(PID.TID 0000.0001) %MON forcing_fu_min               =  -4.6730126718249E-01
(PID.TID 0000.0001) %MON forcing_fu_mean              =  -5.0980385752825E-03
(PID.TID 0000.0001) %MON forcing_fu_sd                =   7.6222269000383E-02
(PID.TID 0000.0001) %MON forcing_fu_del2              =   7.8530715519795E-04
(PID.TID 0000.0001) %MON forcing_fv_max               =   3.5465571184809E-01
(PID.TID 0000.0001) %MON forcing_fv_min               =  -3.4079351653094E-01
(PID.TID 0000.0001) %MON forcing_fv_mean              =  -1.2338261296668E-02
(PID.TID 0000.0001) %MON forcing_fv_sd                =   7.4898522044324E-02
(PID.TID 0000.0001) %MON forcing_fv_del2              =   6.6228456106400E-04
(PID.TID 0000.0001) %MON trAdv_CFL_u_max              =   6.5334185916214E-03
(PID.TID 0000.0001) %MON trAdv_CFL_v_max              =   8.7866657811091E-03
(PID.TID 0000.0001) %MON trAdv_CFL_w_max              =   6.6958689800852E-03
(PID.TID 0000.0001) %MON advcfl_uvel_max              =   6.6853596123016E-03
(PID.TID 0000.0001) %MON advcfl_vvel_max              =   4.8348034535031E-03
(PID.TID 0000.0001) %MON advcfl_wvel_max              =   7.7175466910652E-03
(PID.TID 0000.0001) %MON advcfl_W_hf_max              =   6.6958689800852E-03
(PID.TID 0000.0001) %MON pe_b_mean                    =   4.9834258324236E-04
(PID.TID 0000.0001) %MON ke_max                       =   1.7070617385608E+00
(PID.TID 0000.0001) %MON ke_mean                      =   1.8778345520851E-04
(PID.TID 0000.0001) %MON ke_vol                       =   1.3398073925536E+18
(PID.TID 0000.0001) %MON vort_r_min                   =  -6.9949996581825E-06
(PID.TID 0000.0001) %MON vort_r_max                   =   3.9713861011713E-06
(PID.TID 0000.0001) %MON vort_a_mean                  =  -2.0549865324846E-05
(PID.TID 0000.0001) %MON vort_a_sd                    =   7.5259522483796E-05
(PID.TID 0000.0001) %MON vort_p_mean                  =  -2.4783384543692E-05
(PID.TID 0000.0001) %MON vort_p_sd                    =   1.2811918389622E-04
(PID.TID 0000.0001) %MON surfExpan_theta_mean         =  -7.7545596612379E-06
(PID.TID 0000.0001) %MON surfExpan_salt_mean          =   1.5660105679328E-06
(PID.TID 0000.0001) // =======================================================
(PID.TID 0000.0001) // End MONITOR dynamic field statistics
(PID.TID 0000.0001) // =======================================================
(PID.TID 0000.0001) // =======================================================
(PID.TID 0000.0001) // Begin MONITOR SEAICE statistics
(PID.TID 0000.0001) // =======================================================
(PID.TID 0000.0001) %MON seaice_tsnumber              =                 72012
(PID.TID 0000.0001) %MON seaice_time_sec              =   6.4810800000000E+07
(PID.TID 0000.0001) %MON seaice_uice_max              =   1.8951323661550E+00
(PID.TID 0000.0001) %MON seaice_uice_min              =  -6.5303449586722E-01
(PID.TID 0000.0001) %MON seaice_uice_mean             =  -4.3008981742598E-03
(PID.TID 0000.0001) %MON seaice_uice_sd               =   7.2076371636414E-02
(PID.TID 0000.0001) %MON seaice_uice_del2             =   1.5991530820305E-03
(PID.TID 0000.0001) %MON seaice_vice_max              =   1.3373644474950E+00
(PID.TID 0000.0001) %MON seaice_vice_min              =  -1.6660915603355E+00
(PID.TID 0000.0001) %MON seaice_vice_mean             =  -1.1346712355700E-02
(PID.TID 0000.0001) %MON seaice_vice_sd               =   6.9560686659345E-02
(PID.TID 0000.0001) %MON seaice_vice_del2             =   1.9873536916589E-03
(PID.TID 0000.0001) %MON seaice_area_max              =   1.0000000000000E+00
(PID.TID 0000.0001) %MON seaice_area_min              =   0.0000000000000E+00
(PID.TID 0000.0001) %MON seaice_area_mean             =   6.9221622352614E-02
(PID.TID 0000.0001) %MON seaice_area_sd               =   2.3780221186494E-01
(PID.TID 0000.0001) %MON seaice_area_del2             =   1.7864737390936E-03
(PID.TID 0000.0001) %MON seaice_heff_max              =   8.4685640121236E+00
(PID.TID 0000.0001) %MON seaice_heff_min              =   0.0000000000000E+00
(PID.TID 0000.0001) %MON seaice_heff_mean             =   2.0592288789278E-01
(PID.TID 0000.0001) %MON seaice_heff_sd               =   9.7797512334709E-01
(PID.TID 0000.0001) %MON seaice_heff_del2             =   6.2335710134930E-03
(PID.TID 0000.0001) %MON seaice_hsnow_max             =   2.0316133227036E+00
(PID.TID 0000.0001) %MON seaice_hsnow_min             =   0.0000000000000E+00
(PID.TID 0000.0001) %MON seaice_hsnow_mean            =   2.2785923705132E-02
(PID.TID 0000.0001) %MON seaice_hsnow_sd              =   1.1957376693850E-01
(PID.TID 0000.0001) %MON seaice_hsnow_del2            =   1.4652856892883E-03
(PID.TID 0000.0001) // =======================================================
(PID.TID 0000.0001) // End MONITOR SEAICE statistics
(PID.TID 0000.0001) // =======================================================
 Compute Stats, Diag. #    211  SIarea    vol(   0 ): 1.456E+15  Parms: SM      M1      
 Compute Stats, Diag. #    214  SIheff    vol(   0 ): 1.456E+15  Parms: SM      M1      
 Compute Stats, Diag. #    216  SIhsnow   vol(   0 ): 1.456E+15  Parms: SM      M1      
 Compute Stats, Diag. #     83  sIceLoad  vol(   0 ): 1.456E+15  Parms: SM      U1      
 Compute Stats, Diag. #    220  SIuice    vol(   0 ): 1.383E+15  Parms: UU      M1      
 Compute Stats, Diag. #    221  SIvice    vol(   0 ): 1.391E+15  Parms: VV      M1      
 Compute Stats, Diag. #    222  SItaux    vol(   0 ): 1.383E+15  Parms: UU      U1      
 Compute Stats, Diag. #    223  SItauy    vol(   0 ): 1.391E+15  Parms: VV      U1      
 SEAICE_LSR: Residual Initial ipass,Uice,Vice=    1  8.02988063E-03  8.30584038E-03
 SEAICE_LSR (ipass=   1) iters,dU,Resid=    12  6.24706087E-05  4.07046153E-04
 SEAICE_LSR (ipass=   1) iters,dV,Resid=    12  5.09798747E-05  5.26760824E-05
 SEAICE_LSR: Residual Initial ipass,Uice,Vice=    2  6.89906325E-03  6.98784773E-03
 SEAICE_LSR (ipass=   2) iters,dU,Resid=    10  6.89804305E-05  4.50542404E-04
 SEAICE_LSR (ipass=   2) iters,dV,Resid=    10  5.50500585E-05  1.14673992E-04
 cg2d: Sum(rhs),rhsMax =  -1.81287680068360E+01  6.85570082202926E+01
(PID.TID 0000.0001)      cg2d_init_res =   4.51699103292273E-01
(PID.TID 0000.0001)      cg2d_iters(min,last) =      -1      10
(PID.TID 0000.0001)      cg2d_last_res =   5.13708411629846E-08
(PID.TID 0000.0001) // =======================================================
(PID.TID 0000.0001) // Begin MONITOR dynamic field statistics
(PID.TID 0000.0001) // =======================================================
(PID.TID 0000.0001) %MON time_tsnumber                =                 72013
(PID.TID 0000.0001) %MON time_secondsf                =   6.4811700000000E+07
(PID.TID 0000.0001) %MON dynstat_eta_max              =   3.1460404859296E+00
(PID.TID 0000.0001) %MON dynstat_eta_min              =  -1.6103482436057E+00
(PID.TID 0000.0001) %MON dynstat_eta_mean             =   1.4441799844249E-02
(PID.TID 0000.0001) %MON dynstat_eta_sd               =   6.1100915405172E-01
(PID.TID 0000.0001) %MON dynstat_eta_del2             =   2.5211981746316E-03
(PID.TID 0000.0001) %MON dynstat_uvel_max             =   2.0099627541320E+00
(PID.TID 0000.0001) %MON dynstat_uvel_min             =  -9.7886865066851E-01
(PID.TID 0000.0001) %MON dynstat_uvel_mean            =  -1.3794915073041E-04
(PID.TID 0000.0001) %MON dynstat_uvel_sd              =   1.4246743604779E-02
(PID.TID 0000.0001) %MON dynstat_uvel_del2            =   1.4105912646645E-04
(PID.TID 0000.0001) %MON dynstat_vvel_max             =   1.3042492060142E+00
(PID.TID 0000.0001) %MON dynstat_vvel_min             =  -1.5706215619534E+00
(PID.TID 0000.0001) %MON dynstat_vvel_mean            =  -4.2040503256666E-04
(PID.TID 0000.0001) %MON dynstat_vvel_sd              =   1.4207844880115E-02
(PID.TID 0000.0001) %MON dynstat_vvel_del2            =   1.6481805244536E-04
(PID.TID 0000.0001) %MON dynstat_wvel_max             =   1.0825463973241E-04
(PID.TID 0000.0001) %MON dynstat_wvel_min             =  -5.5353512971633E-04
(PID.TID 0000.0001) %MON dynstat_wvel_mean            =  -4.4102466015082E-07
(PID.TID 0000.0001) %MON dynstat_wvel_sd              =   8.5719107226062E-06
(PID.TID 0000.0001) %MON dynstat_wvel_del2            =   7.9496428175430E-08
(PID.TID 0000.0001) %MON dynstat_theta_max            =   3.0923044750031E+01
(PID.TID 0000.0001) %MON dynstat_theta_min            =  -3.0103878013055E+00
(PID.TID 0000.0001) %MON dynstat_theta_mean           =   3.9090431636666E+00
(PID.TID 0000.0001) %MON dynstat_theta_sd             =   4.5710423858046E+00
(PID.TID 0000.0001) %MON dynstat_theta_del2           =   2.6488629911614E-03
(PID.TID 0000.0001) %MON dynstat_salt_max             =   4.1368032082344E+01
(PID.TID 0000.0001) %MON dynstat_salt_min             =   1.8518500393570E+01
(PID.TID 0000.0001) %MON dynstat_salt_mean            =   3.4772115917239E+01
(PID.TID 0000.0001) %MON dynstat_salt_sd              =   5.3110403554387E-01
(PID.TID 0000.0001) %MON dynstat_salt_del2            =   8.3591191475855E-04
(PID.TID 0000.0001) %MON dynstat_sst_max              =   3.0923044750031E+01
(PID.TID 0000.0001) %MON dynstat_sst_min              =  -1.9445094951178E+00
(PID.TID 0000.0001) %MON dynstat_sst_mean             =   1.8105135866221E+01
(PID.TID 0000.0001) %MON dynstat_sst_sd               =   9.8052698349866E+00
(PID.TID 0000.0001) %MON dynstat_sst_del2             =   1.5179359952555E-02
(PID.TID 0000.0001) %MON dynstat_sss_max              =   4.1368032082344E+01
(PID.TID 0000.0001) %MON dynstat_sss_min              =   1.8751381613239E+01
(PID.TID 0000.0001) %MON dynstat_sss_mean             =   3.4636124962380E+01
(PID.TID 0000.0001) %MON dynstat_sss_sd               =   1.4611257064070E+00
(PID.TID 0000.0001) %MON dynstat_sss_del2             =   8.5289538896221E-03
(PID.TID 0000.0001) %MON forcing_qnet_max             =   1.0017112304688E+04
(PID.TID 0000.0001) %MON forcing_qnet_min             =  -3.0883825747461E+03
(PID.TID 0000.0001) %MON forcing_qnet_mean            =  -8.1123376241465E+01
(PID.TID 0000.0001) %MON forcing_qnet_sd              =   5.3000847168516E+02
(PID.TID 0000.0001) %MON forcing_qnet_del2            =   1.4794032948940E+01
(PID.TID 0000.0001) %MON forcing_qsw_max              =   0.0000000000000E+00
(PID.TID 0000.0001) %MON forcing_qsw_min              =  -1.0743330068050E+02
(PID.TID 0000.0001) %MON forcing_qsw_mean             =  -2.1713047781370E+01
(PID.TID 0000.0001) %MON forcing_qsw_sd               =   3.0092233185262E+01
(PID.TID 0000.0001) %MON forcing_qsw_del2             =   1.7028249282852E-01
(PID.TID 0000.0001) %MON forcing_empmr_max            =   1.3380160555243E-02
(PID.TID 0000.0001) %MON forcing_empmr_min            =  -2.0928782224655E-01
(PID.TID 0000.0001) %MON forcing_empmr_mean           =  -4.8373588960868E-04
(PID.TID 0000.0001) %MON forcing_empmr_sd             =   7.3368382915878E-03
(PID.TID 0000.0001) %MON forcing_empmr_del2           =   2.9835228712147E-04
(PID.TID 0000.0001) %MON forcing_fu_max               =   6.9657130195286E-01
(PID.TID 0000.0001) %MON forcing_fu_min               =  -4.6657338759952E-01
(PID.TID 0000.0001) %MON forcing_fu_mean              =  -4.9176828209090E-03
(PID.TID 0000.0001) %MON forcing_fu_sd                =   7.6190931149730E-02
(PID.TID 0000.0001) %MON forcing_fu_del2              =   7.8144915284163E-04
(PID.TID 0000.0001) %MON forcing_fv_max               =   3.4837011466785E-01
(PID.TID 0000.0001) %MON forcing_fv_min               =  -3.4364263052716E-01
(PID.TID 0000.0001) %MON forcing_fv_mean              =  -1.2141910268004E-02
(PID.TID 0000.0001) %MON forcing_fv_sd                =   7.4687268623747E-02
(PID.TID 0000.0001) %MON forcing_fv_del2              =   6.6160784585925E-04
(PID.TID 0000.0001) %MON trAdv_CFL_u_max              =   6.5736855027040E-03
(PID.TID 0000.0001) %MON trAdv_CFL_v_max              =   8.6158510062801E-03
(PID.TID 0000.0001) %MON trAdv_CFL_w_max              =   6.4422034953660E-03
(PID.TID 0000.0001) %MON advcfl_uvel_max              =   6.7027567259941E-03
(PID.TID 0000.0001) %MON advcfl_vvel_max              =   4.7067906512688E-03
(PID.TID 0000.0001) %MON advcfl_wvel_max              =   7.2795764259670E-03
(PID.TID 0000.0001) %MON advcfl_W_hf_max              =   6.4422034953660E-03
(PID.TID 0000.0001) %MON pe_b_mean                    =   4.9762341542078E-04
(PID.TID 0000.0001) %MON ke_max                       =   1.6382125578687E+00
(PID.TID 0000.0001) %MON ke_mean                      =   1.8698779852119E-04
(PID.TID 0000.0001) %MON ke_vol                       =   1.3398075474769E+18
(PID.TID 0000.0001) %MON vort_r_min                   =  -7.5540894417991E-06
(PID.TID 0000.0001) %MON vort_r_max                   =   3.6285262226411E-06
(PID.TID 0000.0001) %MON vort_a_mean                  =  -2.0549865324846E-05
(PID.TID 0000.0001) %MON vort_a_sd                    =   7.5259520780592E-05
(PID.TID 0000.0001) %MON vort_p_mean                  =  -2.4783380617602E-05
(PID.TID 0000.0001) %MON vort_p_sd                    =   1.2811916198400E-04
(PID.TID 0000.0001) %MON surfExpan_theta_mean         =  -7.7088267669023E-06
(PID.TID 0000.0001) %MON surfExpan_salt_mean          =   1.5920002315167E-06
(PID.TID 0000.0001) // =======================================================
(PID.TID 0000.0001) // End MONITOR dynamic field statistics
(PID.TID 0000.0001) // =======================================================
(PID.TID 0000.0001) // =======================================================
(PID.TID 0000.0001) // Begin MONITOR SEAICE statistics
(PID.TID 0000.0001) // =======================================================
(PID.TID 0000.0001) %MON seaice_tsnumber              =                 72013
(PID.TID 0000.0001) %MON seaice_time_sec              =   6.4811700000000E+07
(PID.TID 0000.0001) %MON seaice_uice_max              =   1.9114372259596E+00
(PID.TID 0000.0001) %MON seaice_uice_min              =  -6.5346377532482E-01
(PID.TID 0000.0001) %MON seaice_uice_mean             =  -4.2347681357186E-03
(PID.TID 0000.0001) %MON seaice_uice_sd               =   7.2370358718140E-02
(PID.TID 0000.0001) %MON seaice_uice_del2             =   1.5928667470546E-03
(PID.TID 0000.0001) %MON seaice_vice_max              =   1.3205225172681E+00
(PID.TID 0000.0001) %MON seaice_vice_min              =  -1.6552991974406E+00
(PID.TID 0000.0001) %MON seaice_vice_mean             =  -1.1536848500704E-02
(PID.TID 0000.0001) %MON seaice_vice_sd               =   6.9166113458160E-02
(PID.TID 0000.0001) %MON seaice_vice_del2             =   1.9207061010772E-03
(PID.TID 0000.0001) %MON seaice_area_max              =   1.0000000000000E+00
(PID.TID 0000.0001) %MON seaice_area_min              =   0.0000000000000E+00
(PID.TID 0000.0001) %MON seaice_area_mean             =   6.9232493316250E-02
(PID.TID 0000.0001) %MON seaice_area_sd               =   2.3783903241914E-01
(PID.TID 0000.0001) %MON seaice_area_del2             =   1.7858118301003E-03
(PID.TID 0000.0001) %MON seaice_heff_max              =   8.4712805649842E+00
(PID.TID 0000.0001) %MON seaice_heff_min              =   0.0000000000000E+00
(PID.TID 0000.0001) %MON seaice_heff_mean             =   2.0594164560144E-01
(PID.TID 0000.0001) %MON seaice_heff_sd               =   9.7809351382799E-01
(PID.TID 0000.0001) %MON seaice_heff_del2             =   6.2340224400183E-03
(PID.TID 0000.0001) %MON seaice_hsnow_max             =   2.0316043362705E+00
(PID.TID 0000.0001) %MON seaice_hsnow_min             =   0.0000000000000E+00
(PID.TID 0000.0001) %MON seaice_hsnow_mean            =   2.2785222177487E-02
(PID.TID 0000.0001) %MON seaice_hsnow_sd              =   1.1957190447295E-01
(PID.TID 0000.0001) %MON seaice_hsnow_del2            =   1.4652291269672E-03
(PID.TID 0000.0001) // =======================================================
(PID.TID 0000.0001) // End MONITOR SEAICE statistics
(PID.TID 0000.0001) // =======================================================
 Computing Diagnostic #    211  SIarea       Counter:       1   Parms: SM      M1      
 Computing Diagnostic #    214  SIheff       Counter:       1   Parms: SM      M1      
 Computing Diagnostic #    216  SIhsnow      Counter:       1   Parms: SM      M1      
 Computing Diagnostic #     83  sIceLoad     Counter:       1   Parms: SM      U1      
 Computing Diagnostic #    220  SIuice       Counter:       1   Parms: UU      M1      
           Vector  Mate for  SIuice       Diagnostic #    221  SIvice   exists 
 Computing Diagnostic #    221  SIvice       Counter:       1   Parms: VV      M1      
           Vector  Mate for  SIvice       Diagnostic #    220  SIuice   exists 
 Computing Diagnostic #    222  SItaux       Counter:       1   Parms: UU      U1      
           Vector  Mate for  SItaux       Diagnostic #    223  SItauy   exists 
 Computing Diagnostic #    223  SItauy       Counter:       1   Parms: VV      U1      
           Vector  Mate for  SItauy       Diagnostic #    222  SItaux   exists 
 Computing Diagnostic #      1  SDIAG1       Counter:       1   Parms: SM      L1      
 Computing Diagnostic #    282  SIareaN      Counter:       1   Parms: SM      MX      
 Computing Diagnostic #    281  SIheffN      Counter:       1   Parms: SM      MX      
 Computing Diagnostic #    283  SIhsnowN     Counter:       1   Parms: SM      MX      
 SEAICE_LSR: Residual Initial ipass,Uice,Vice=    1  7.87438359E-03  7.90346382E-03
 SEAICE_LSR (ipass=   1) iters,dU,Resid=    10  7.54495271E-05  4.98119815E-04
 SEAICE_LSR (ipass=   1) iters,dV,Resid=    10  9.47228991E-05  1.33672848E-04
 SEAICE_LSR: Residual Initial ipass,Uice,Vice=    2  6.89130776E-03  6.69944684E-03
 SEAICE_LSR (ipass=   2) iters,dU,Resid=    10  5.65035249E-05  3.74710317E-04
 SEAICE_LSR (ipass=   2) iters,dV,Resid=    10  4.46234044E-05  1.38855393E-04
 cg2d: Sum(rhs),rhsMax =  -1.72528823655977E+01  7.41137563502212E+01
(PID.TID 0000.0001)      cg2d_init_res =   3.98094629502520E-01
(PID.TID 0000.0001)      cg2d_iters(min,last) =      -1      10
(PID.TID 0000.0001)      cg2d_last_res =   4.61965543719902E-08
(PID.TID 0000.0001) // =======================================================
(PID.TID 0000.0001) // Begin MONITOR dynamic field statistics
(PID.TID 0000.0001) // =======================================================
(PID.TID 0000.0001) %MON time_tsnumber                =                 72014
(PID.TID 0000.0001) %MON time_secondsf                =   6.4812600000000E+07
(PID.TID 0000.0001) %MON dynstat_eta_max              =   3.3967615935257E+00
(PID.TID 0000.0001) %MON dynstat_eta_min              =  -1.6069547207902E+00
(PID.TID 0000.0001) %MON dynstat_eta_mean             =   1.4858044675268E-02
(PID.TID 0000.0001) %MON dynstat_eta_sd               =   6.1124797296610E-01
(PID.TID 0000.0001) %MON dynstat_eta_del2             =   2.6856024733411E-03
(PID.TID 0000.0001) %MON dynstat_uvel_max             =   1.9933410562209E+00
(PID.TID 0000.0001) %MON dynstat_uvel_min             =  -9.7648931052938E-01
(PID.TID 0000.0001) %MON dynstat_uvel_mean            =  -1.1378254247231E-04
(PID.TID 0000.0001) %MON dynstat_uvel_sd              =   1.4209915336982E-02
(PID.TID 0000.0001) %MON dynstat_uvel_del2            =   1.3805743420874E-04
(PID.TID 0000.0001) %MON dynstat_vvel_max             =   1.2470873090195E+00
(PID.TID 0000.0001) %MON dynstat_vvel_min             =  -1.5020833638223E+00
(PID.TID 0000.0001) %MON dynstat_vvel_mean            =  -4.2567995155056E-04
(PID.TID 0000.0001) %MON dynstat_vvel_sd              =   1.4115082101484E-02
(PID.TID 0000.0001) %MON dynstat_vvel_del2            =   1.5527384603010E-04
(PID.TID 0000.0001) %MON dynstat_wvel_max             =   1.0492594773658E-04
(PID.TID 0000.0001) %MON dynstat_wvel_min             =  -5.6110860715494E-04
(PID.TID 0000.0001) %MON dynstat_wvel_mean            =  -4.2805456921036E-07
(PID.TID 0000.0001) %MON dynstat_wvel_sd              =   8.5658250025474E-06
(PID.TID 0000.0001) %MON dynstat_wvel_del2            =   7.9650063113056E-08
(PID.TID 0000.0001) %MON dynstat_theta_max            =   3.0922869480062E+01
(PID.TID 0000.0001) %MON dynstat_theta_min            =  -3.0100566383175E+00
(PID.TID 0000.0001) %MON dynstat_theta_mean           =   3.9090500367480E+00
(PID.TID 0000.0001) %MON dynstat_theta_sd             =   4.5710719376024E+00
(PID.TID 0000.0001) %MON dynstat_theta_del2           =   2.6485275446029E-03
(PID.TID 0000.0001) %MON dynstat_salt_max             =   4.1367098099198E+01
(PID.TID 0000.0001) %MON dynstat_salt_min             =   1.8518510215416E+01
(PID.TID 0000.0001) %MON dynstat_salt_mean            =   3.4772109759034E+01
(PID.TID 0000.0001) %MON dynstat_salt_sd              =   5.3112236509649E-01
(PID.TID 0000.0001) %MON dynstat_salt_del2            =   8.4060068646435E-04
(PID.TID 0000.0001) %MON dynstat_sst_max              =   3.0922869480062E+01
(PID.TID 0000.0001) %MON dynstat_sst_min              =  -1.9443025428907E+00
(PID.TID 0000.0001) %MON dynstat_sst_mean             =   1.8105463736097E+01
(PID.TID 0000.0001) %MON dynstat_sst_sd               =   9.8056623003363E+00
(PID.TID 0000.0001) %MON dynstat_sst_del2             =   1.5170702158811E-02
(PID.TID 0000.0001) %MON dynstat_sss_max              =   4.1367098099198E+01
(PID.TID 0000.0001) %MON dynstat_sss_min              =   1.8751382474302E+01
(PID.TID 0000.0001) %MON dynstat_sss_mean             =   3.4635680536025E+01
(PID.TID 0000.0001) %MON dynstat_sss_sd               =   1.4615766543859E+00
(PID.TID 0000.0001) %MON dynstat_sss_del2             =   8.6012354335252E-03
(PID.TID 0000.0001) %MON forcing_qnet_max             =   8.3786240234375E+03
(PID.TID 0000.0001) %MON forcing_qnet_min             =  -3.5674736328125E+03
(PID.TID 0000.0001) %MON forcing_qnet_mean            =  -7.5351467104160E+01
(PID.TID 0000.0001) %MON forcing_qnet_sd              =   4.9487965932839E+02
(PID.TID 0000.0001) %MON forcing_qnet_del2            =   1.3985348930400E+01
(PID.TID 0000.0001) %MON forcing_qsw_max              =   0.0000000000000E+00
(PID.TID 0000.0001) %MON forcing_qsw_min              =  -1.0669290314507E+02
(PID.TID 0000.0001) %MON forcing_qsw_mean             =  -2.1523341606708E+01
(PID.TID 0000.0001) %MON forcing_qsw_sd               =   2.9941899127111E+01
(PID.TID 0000.0001) %MON forcing_qsw_del2             =   1.7362780892610E-01
(PID.TID 0000.0001) %MON forcing_empmr_max            =   1.3293243944645E-02
(PID.TID 0000.0001) %MON forcing_empmr_min            =  -1.9900585711002E-01
(PID.TID 0000.0001) %MON forcing_empmr_mean           =  -4.7868155567178E-04
(PID.TID 0000.0001) %MON forcing_empmr_sd             =   7.2138601355655E-03
(PID.TID 0000.0001) %MON forcing_empmr_del2           =   2.9374809073178E-04
(PID.TID 0000.0001) %MON forcing_fu_max               =   6.8758407885732E-01
(PID.TID 0000.0001) %MON forcing_fu_min               =  -4.6037107066558E-01
(PID.TID 0000.0001) %MON forcing_fu_mean              =  -4.7247682005129E-03
(PID.TID 0000.0001) %MON forcing_fu_sd                =   7.6138006952480E-02
(PID.TID 0000.0001) %MON forcing_fu_del2              =   7.7718973747065E-04
(PID.TID 0000.0001) %MON forcing_fv_max               =   3.3874032009599E-01
(PID.TID 0000.0001) %MON forcing_fv_min               =  -3.4601839998428E-01
(PID.TID 0000.0001) %MON forcing_fv_mean              =  -1.1924151842689E-02
(PID.TID 0000.0001) %MON forcing_fv_sd                =   7.4489390728961E-02
(PID.TID 0000.0001) %MON forcing_fv_del2              =   6.6055435378908E-04
(PID.TID 0000.0001) %MON trAdv_CFL_u_max              =   6.5401790985989E-03
(PID.TID 0000.0001) %MON trAdv_CFL_v_max              =   8.3055038293138E-03
(PID.TID 0000.0001) %MON trAdv_CFL_w_max              =   6.1628918021460E-03
(PID.TID 0000.0001) %MON advcfl_uvel_max              =   6.6473272424169E-03
(PID.TID 0000.0001) %MON advcfl_vvel_max              =   4.5013974757051E-03
(PID.TID 0000.0001) %MON advcfl_wvel_max              =   6.9219428560008E-03
(PID.TID 0000.0001) %MON advcfl_W_hf_max              =   6.1628918021460E-03
(PID.TID 0000.0001) %MON pe_b_mean                    =   4.9802846642321E-04
(PID.TID 0000.0001) %MON ke_max                       =   1.5229131867961E+00
(PID.TID 0000.0001) %MON ke_mean                      =   1.8528667692724E-04
(PID.TID 0000.0001) %MON ke_vol                       =   1.3398077005422E+18
(PID.TID 0000.0001) %MON vort_r_min                   =  -8.0240449018955E-06
(PID.TID 0000.0001) %MON vort_r_max                   =   3.2104784401697E-06
(PID.TID 0000.0001) %MON vort_a_mean                  =  -2.0549865324846E-05
(PID.TID 0000.0001) %MON vort_a_sd                    =   7.5259519216288E-05
(PID.TID 0000.0001) %MON vort_p_mean                  =  -2.4783376834239E-05
(PID.TID 0000.0001) %MON vort_p_sd                    =   1.2811914821869E-04
(PID.TID 0000.0001) %MON surfExpan_theta_mean         =  -7.6740563468106E-06
(PID.TID 0000.0001) %MON surfExpan_salt_mean          =   1.6060040237308E-06
(PID.TID 0000.0001) // =======================================================
(PID.TID 0000.0001) // End MONITOR dynamic field statistics
(PID.TID 0000.0001) // =======================================================
(PID.TID 0000.0001) // =======================================================
(PID.TID 0000.0001) // Begin MONITOR SEAICE statistics
(PID.TID 0000.0001) // =======================================================
(PID.TID 0000.0001) %MON seaice_tsnumber              =                 72014
(PID.TID 0000.0001) %MON seaice_time_sec              =   6.4812600000000E+07
(PID.TID 0000.0001) %MON seaice_uice_max              =   1.9050982017792E+00
(PID.TID 0000.0001) %MON seaice_uice_min              =  -6.6944243686129E-01
(PID.TID 0000.0001) %MON seaice_uice_mean             =  -4.1893434736425E-03
(PID.TID 0000.0001) %MON seaice_uice_sd               =   7.2281118201389E-02
(PID.TID 0000.0001) %MON seaice_uice_del2             =   1.5700832016915E-03
(PID.TID 0000.0001) %MON seaice_vice_max              =   1.2834210501087E+00
(PID.TID 0000.0001) %MON seaice_vice_min              =  -1.6157928489338E+00
(PID.TID 0000.0001) %MON seaice_vice_mean             =  -1.1725775045410E-02
(PID.TID 0000.0001) %MON seaice_vice_sd               =   6.8456784784620E-02
(PID.TID 0000.0001) %MON seaice_vice_del2             =   1.8325964366068E-03
(PID.TID 0000.0001) %MON seaice_area_max              =   1.0000000000000E+00
(PID.TID 0000.0001) %MON seaice_area_min              =   0.0000000000000E+00
(PID.TID 0000.0001) %MON seaice_area_mean             =   6.9236188932173E-02
(PID.TID 0000.0001) %MON seaice_area_sd               =   2.3784912004065E-01
(PID.TID 0000.0001) %MON seaice_area_del2             =   1.7845037257624E-03
(PID.TID 0000.0001) %MON seaice_heff_max              =   8.4739191758902E+00
(PID.TID 0000.0001) %MON seaice_heff_min              =   0.0000000000000E+00
(PID.TID 0000.0001) %MON seaice_heff_mean             =   2.0595897940964E-01
(PID.TID 0000.0001) %MON seaice_heff_sd               =   9.7820628961078E-01
(PID.TID 0000.0001) %MON seaice_heff_del2             =   6.2344384129261E-03
(PID.TID 0000.0001) %MON seaice_hsnow_max             =   2.0315945773271E+00
(PID.TID 0000.0001) %MON seaice_hsnow_min             =   0.0000000000000E+00
(PID.TID 0000.0001) %MON seaice_hsnow_mean            =   2.2784255687897E-02
(PID.TID 0000.0001) %MON seaice_hsnow_sd              =   1.1956960639330E-01
(PID.TID 0000.0001) %MON seaice_hsnow_del2            =   1.4651697987614E-03
(PID.TID 0000.0001) // =======================================================
(PID.TID 0000.0001) // End MONITOR SEAICE statistics
(PID.TID 0000.0001) // =======================================================
 SEAICE_LSR: Residual Initial ipass,Uice,Vice=    1  7.81653399E-03  7.63165338E-03
 SEAICE_LSR (ipass=   1) iters,dU,Resid=    10  5.48585810E-05  3.67517144E-04
 SEAICE_LSR (ipass=   1) iters,dV,Resid=    10  7.70259807E-05  1.65791156E-04
 SEAICE_LSR: Residual Initial ipass,Uice,Vice=    2  6.85039896E-03  6.54506326E-03
 SEAICE_LSR (ipass=   2) iters,dU,Resid=     8  6.51753338E-05  4.15734514E-04
 SEAICE_LSR (ipass=   2) iters,dV,Resid=     8  8.28277151E-05  2.46691412E-04
 cg2d: Sum(rhs),rhsMax =  -1.66380487176575E+01  7.89839728028784E+01
(PID.TID 0000.0001)      cg2d_init_res =   3.46930453029584E-01
(PID.TID 0000.0001)      cg2d_iters(min,last) =      -1      10
(PID.TID 0000.0001)      cg2d_last_res =   4.17601322594377E-08
(PID.TID 0000.0001) // =======================================================
(PID.TID 0000.0001) // Begin MONITOR dynamic field statistics
(PID.TID 0000.0001) // =======================================================
(PID.TID 0000.0001) %MON time_tsnumber                =                 72015
(PID.TID 0000.0001) %MON time_secondsf                =   6.4813500000000E+07
(PID.TID 0000.0001) %MON dynstat_eta_max              =   3.6164595984634E+00
(PID.TID 0000.0001) %MON dynstat_eta_min              =  -1.7981134040384E+00
(PID.TID 0000.0001) %MON dynstat_eta_mean             =   1.5270123141363E-02
(PID.TID 0000.0001) %MON dynstat_eta_sd               =   6.1205188289687E-01
(PID.TID 0000.0001) %MON dynstat_eta_del2             =   2.9027851544280E-03
(PID.TID 0000.0001) %MON dynstat_uvel_max             =   1.9557207379364E+00
(PID.TID 0000.0001) %MON dynstat_uvel_min             =  -9.6553570981969E-01
(PID.TID 0000.0001) %MON dynstat_uvel_mean            =  -9.0404690582773E-05
(PID.TID 0000.0001) %MON dynstat_uvel_sd              =   1.4129089598288E-02
(PID.TID 0000.0001) %MON dynstat_uvel_del2            =   1.3407889395422E-04
(PID.TID 0000.0001) %MON dynstat_vvel_max             =   1.1730480313826E+00
(PID.TID 0000.0001) %MON dynstat_vvel_min             =  -1.4099220352611E+00
(PID.TID 0000.0001) %MON dynstat_vvel_mean            =  -4.2920681342976E-04
(PID.TID 0000.0001) %MON dynstat_vvel_sd              =   1.4013560630625E-02
(PID.TID 0000.0001) %MON dynstat_vvel_del2            =   1.4526127233566E-04
(PID.TID 0000.0001) %MON dynstat_wvel_max             =   1.1697685567662E-04
(PID.TID 0000.0001) %MON dynstat_wvel_min             =  -5.5783022170163E-04
(PID.TID 0000.0001) %MON dynstat_wvel_mean            =  -4.1439886245474E-07
(PID.TID 0000.0001) %MON dynstat_wvel_sd              =   8.5687957238721E-06
(PID.TID 0000.0001) %MON dynstat_wvel_del2            =   7.9862753452084E-08
(PID.TID 0000.0001) %MON dynstat_theta_max            =   3.0922706711874E+01
(PID.TID 0000.0001) %MON dynstat_theta_min            =  -3.0096727949163E+00
(PID.TID 0000.0001) %MON dynstat_theta_mean           =   3.9090566346710E+00
(PID.TID 0000.0001) %MON dynstat_theta_sd             =   4.5710995958334E+00
(PID.TID 0000.0001) %MON dynstat_theta_del2           =   2.6482549377343E-03
(PID.TID 0000.0001) %MON dynstat_salt_max             =   4.1366190071719E+01
(PID.TID 0000.0001) %MON dynstat_salt_min             =   1.8518520062794E+01
(PID.TID 0000.0001) %MON dynstat_salt_mean            =   3.4772103783140E+01
(PID.TID 0000.0001) %MON dynstat_salt_sd              =   5.3114101985267E-01
(PID.TID 0000.0001) %MON dynstat_salt_del2            =   8.4544564910922E-04
(PID.TID 0000.0001) %MON dynstat_sst_max              =   3.0922706711874E+01
(PID.TID 0000.0001) %MON dynstat_sst_min              =  -1.9440737660049E+00
(PID.TID 0000.0001) %MON dynstat_sst_mean             =   1.8105772318189E+01
(PID.TID 0000.0001) %MON dynstat_sst_sd               =   9.8060151192619E+00
(PID.TID 0000.0001) %MON dynstat_sst_del2             =   1.5163887589889E-02
(PID.TID 0000.0001) %MON dynstat_sss_max              =   4.1366190071719E+01
(PID.TID 0000.0001) %MON dynstat_sss_min              =   1.8751383222400E+01
(PID.TID 0000.0001) %MON dynstat_sss_mean             =   3.4635247753474E+01
(PID.TID 0000.0001) %MON dynstat_sss_sd               =   1.4620352077900E+00
(PID.TID 0000.0001) %MON dynstat_sss_del2             =   8.6757530142433E-03
(PID.TID 0000.0001) %MON forcing_qnet_max             =   7.4666694335938E+03
(PID.TID 0000.0001) %MON forcing_qnet_min             =  -4.3387294921875E+03
(PID.TID 0000.0001) %MON forcing_qnet_mean            =  -7.1181495058660E+01
(PID.TID 0000.0001) %MON forcing_qnet_sd              =   4.4823727588667E+02
(PID.TID 0000.0001) %MON forcing_qnet_del2            =   1.2809574573412E+01
(PID.TID 0000.0001) %MON forcing_qsw_max              =   0.0000000000000E+00
(PID.TID 0000.0001) %MON forcing_qsw_min              =  -1.0550116239731E+02
(PID.TID 0000.0001) %MON forcing_qsw_mean             =  -2.1276006742383E+01
(PID.TID 0000.0001) %MON forcing_qsw_sd               =   2.9730120579720E+01
(PID.TID 0000.0001) %MON forcing_qsw_del2             =   1.7667651376578E-01
(PID.TID 0000.0001) %MON forcing_empmr_max            =   1.3097943738103E-02
(PID.TID 0000.0001) %MON forcing_empmr_min            =  -1.9002057611942E-01
(PID.TID 0000.0001) %MON forcing_empmr_mean           =  -4.7389023600923E-04
(PID.TID 0000.0001) %MON forcing_empmr_sd             =   7.0985609630736E-03
(PID.TID 0000.0001) %MON forcing_empmr_del2           =   2.8933633638753E-04
(PID.TID 0000.0001) %MON forcing_fu_max               =   6.7276552393934E-01
(PID.TID 0000.0001) %MON forcing_fu_min               =  -4.5067688608910E-01
(PID.TID 0000.0001) %MON forcing_fu_mean              =  -4.6209657101130E-03
(PID.TID 0000.0001) %MON forcing_fu_sd                =   7.5748216502178E-02
(PID.TID 0000.0001) %MON forcing_fu_del2              =   7.7086166349034E-04
(PID.TID 0000.0001) %MON forcing_fv_max               =   3.2943234470826E-01
(PID.TID 0000.0001) %MON forcing_fv_min               =  -3.5050411266421E-01
(PID.TID 0000.0001) %MON forcing_fv_mean              =  -1.1708133918924E-02
(PID.TID 0000.0001) %MON forcing_fv_sd                =   7.4156369278848E-02
(PID.TID 0000.0001) %MON forcing_fv_del2              =   6.5859072973895E-04
(PID.TID 0000.0001) %MON trAdv_CFL_u_max              =   6.4354369378158E-03
(PID.TID 0000.0001) %MON trAdv_CFL_v_max              =   7.8639221386231E-03
(PID.TID 0000.0001) %MON trAdv_CFL_w_max              =   5.8701640454136E-03
(PID.TID 0000.0001) %MON advcfl_uvel_max              =   6.5218722602800E-03
(PID.TID 0000.0001) %MON advcfl_vvel_max              =   4.2252112255045E-03
(PID.TID 0000.0001) %MON advcfl_wvel_max              =   6.6094113432843E-03
(PID.TID 0000.0001) %MON advcfl_W_hf_max              =   5.8701640454136E-03
(PID.TID 0000.0001) %MON pe_b_mean                    =   4.9935504510571E-04
(PID.TID 0000.0001) %MON ke_max                       =   1.3705786034038E+00
(PID.TID 0000.0001) %MON ke_mean                      =   1.8290875199666E-04
(PID.TID 0000.0001) %MON ke_vol                       =   1.3398078520082E+18
(PID.TID 0000.0001) %MON vort_r_min                   =  -8.3928492995741E-06
(PID.TID 0000.0001) %MON vort_r_max                   =   3.1274665577374E-06
(PID.TID 0000.0001) %MON vort_a_mean                  =  -2.0549865324846E-05
(PID.TID 0000.0001) %MON vort_a_sd                    =   7.5259517897275E-05
(PID.TID 0000.0001) %MON vort_p_mean                  =  -2.4783373193060E-05
(PID.TID 0000.0001) %MON vort_p_sd                    =   1.2811914195902E-04
(PID.TID 0000.0001) %MON surfExpan_theta_mean         =  -7.6409895763736E-06
(PID.TID 0000.0001) %MON surfExpan_salt_mean          =   1.6078109773881E-06
(PID.TID 0000.0001) // =======================================================
(PID.TID 0000.0001) // End MONITOR dynamic field statistics
(PID.TID 0000.0001) // =======================================================
(PID.TID 0000.0001) // =======================================================
(PID.TID 0000.0001) // Begin MONITOR SEAICE statistics
(PID.TID 0000.0001) // =======================================================
(PID.TID 0000.0001) %MON seaice_tsnumber              =                 72015
(PID.TID 0000.0001) %MON seaice_time_sec              =   6.4813500000000E+07
(PID.TID 0000.0001) %MON seaice_uice_max              =   1.8774809605323E+00
(PID.TID 0000.0001) %MON seaice_uice_min              =  -6.7465128263208E-01
(PID.TID 0000.0001) %MON seaice_uice_mean             =  -4.1570394548504E-03
(PID.TID 0000.0001) %MON seaice_uice_sd               =   7.1807419456638E-02
(PID.TID 0000.0001) %MON seaice_uice_del2             =   1.5316733446560E-03
(PID.TID 0000.0001) %MON seaice_vice_max              =   1.2277109679000E+00
(PID.TID 0000.0001) %MON seaice_vice_min              =  -1.5494719290879E+00
(PID.TID 0000.0001) %MON seaice_vice_mean             =  -1.1883558484428E-02
(PID.TID 0000.0001) %MON seaice_vice_sd               =   6.7514005124329E-02
(PID.TID 0000.0001) %MON seaice_vice_del2             =   1.7282263631597E-03
(PID.TID 0000.0001) %MON seaice_area_max              =   1.0000000000000E+00
(PID.TID 0000.0001) %MON seaice_area_min              =   0.0000000000000E+00
(PID.TID 0000.0001) %MON seaice_area_mean             =   6.9239557697398E-02
(PID.TID 0000.0001) %MON seaice_area_sd               =   2.3785891439798E-01
(PID.TID 0000.0001) %MON seaice_area_del2             =   1.7832497444404E-03
(PID.TID 0000.0001) %MON seaice_heff_max              =   8.4764817968724E+00
(PID.TID 0000.0001) %MON seaice_heff_min              =   0.0000000000000E+00
(PID.TID 0000.0001) %MON seaice_heff_mean             =   2.0597496074031E-01
(PID.TID 0000.0001) %MON seaice_heff_sd               =   9.7831375701144E-01
(PID.TID 0000.0001) %MON seaice_heff_del2             =   6.2348267937175E-03
(PID.TID 0000.0001) %MON seaice_hsnow_max             =   2.0315863038225E+00
(PID.TID 0000.0001) %MON seaice_hsnow_min             =   0.0000000000000E+00
(PID.TID 0000.0001) %MON seaice_hsnow_mean            =   2.2783123858228E-02
(PID.TID 0000.0001) %MON seaice_hsnow_sd              =   1.1956702718574E-01
(PID.TID 0000.0001) %MON seaice_hsnow_del2            =   1.4651054607643E-03
(PID.TID 0000.0001) // =======================================================
(PID.TID 0000.0001) // End MONITOR SEAICE statistics
(PID.TID 0000.0001) // =======================================================
 SEAICE_LSR: Residual Initial ipass,Uice,Vice=    1  7.38987533E-03  7.56876069E-03
 SEAICE_LSR (ipass=   1) iters,dU,Resid=    10  3.51756591E-05  2.30535759E-04
 SEAICE_LSR (ipass=   1) iters,dV,Resid=    10  6.12314129E-05  1.63128405E-04
 SEAICE_LSR: Residual Initial ipass,Uice,Vice=    2  6.59972100E-03  6.43846088E-03
 SEAICE_LSR (ipass=   2) iters,dU,Resid=     8  4.23677798E-05  2.67605250E-04
 SEAICE_LSR (ipass=   2) iters,dV,Resid=     8  6.48838470E-05  2.29397417E-04
 cg2d: Sum(rhs),rhsMax =  -1.62427172728050E+01  8.30710009213734E+01
(PID.TID 0000.0001)      cg2d_init_res =   2.99794160805580E-01
(PID.TID 0000.0001)      cg2d_iters(min,last) =      -1      10
(PID.TID 0000.0001)      cg2d_last_res =   4.23714246982080E-08
(PID.TID 0000.0001) // =======================================================
(PID.TID 0000.0001) // Begin MONITOR dynamic field statistics
(PID.TID 0000.0001) // =======================================================
(PID.TID 0000.0001) %MON time_tsnumber                =                 72016
(PID.TID 0000.0001) %MON time_secondsf                =   6.4814400000000E+07
(PID.TID 0000.0001) %MON dynstat_eta_max              =   3.8007482841248E+00
(PID.TID 0000.0001) %MON dynstat_eta_min              =  -2.0057129022477E+00
(PID.TID 0000.0001) %MON dynstat_eta_mean             =   1.5678672963980E-02
(PID.TID 0000.0001) %MON dynstat_eta_sd               =   6.1323956068358E-01
(PID.TID 0000.0001) %MON dynstat_eta_del2             =   3.1341280861388E-03
(PID.TID 0000.0001) %MON dynstat_uvel_max             =   1.8977909810659E+00
(PID.TID 0000.0001) %MON dynstat_uvel_min             =  -9.4664366237513E-01
(PID.TID 0000.0001) %MON dynstat_uvel_mean            =  -6.7867149039147E-05
(PID.TID 0000.0001) %MON dynstat_uvel_sd              =   1.4015652690527E-02
(PID.TID 0000.0001) %MON dynstat_uvel_del2            =   1.2936059432602E-04
(PID.TID 0000.0001) %MON dynstat_vvel_max             =   1.0842797844218E+00
(PID.TID 0000.0001) %MON dynstat_vvel_min             =  -1.2966849817639E+00
(PID.TID 0000.0001) %MON dynstat_vvel_mean            =  -4.3106016055592E-04
(PID.TID 0000.0001) %MON dynstat_vvel_sd              =   1.3914705886497E-02
(PID.TID 0000.0001) %MON dynstat_vvel_del2            =   1.3530068336017E-04
(PID.TID 0000.0001) %MON dynstat_wvel_max             =   1.2763949671912E-04
(PID.TID 0000.0001) %MON dynstat_wvel_min             =  -5.4333421657088E-04
(PID.TID 0000.0001) %MON dynstat_wvel_mean            =  -4.0053168103320E-07
(PID.TID 0000.0001) %MON dynstat_wvel_sd              =   8.6090078337672E-06
(PID.TID 0000.0001) %MON dynstat_wvel_del2            =   8.0232587223854E-08
(PID.TID 0000.0001) %MON dynstat_theta_max            =   3.0922557369289E+01
(PID.TID 0000.0001) %MON dynstat_theta_min            =  -3.0092371663701E+00
(PID.TID 0000.0001) %MON dynstat_theta_mean           =   3.9090629734728E+00
(PID.TID 0000.0001) %MON dynstat_theta_sd             =   4.5711252130720E+00
(PID.TID 0000.0001) %MON dynstat_theta_del2           =   2.6480319119083E-03
(PID.TID 0000.0001) %MON dynstat_salt_max             =   4.1365314996424E+01
(PID.TID 0000.0001) %MON dynstat_salt_min             =   1.8518529922840E+01
(PID.TID 0000.0001) %MON dynstat_salt_mean            =   3.4772097983133E+01
(PID.TID 0000.0001) %MON dynstat_salt_sd              =   5.3115999597793E-01
(PID.TID 0000.0001) %MON dynstat_salt_del2            =   8.5043096270050E-04
(PID.TID 0000.0001) %MON dynstat_sst_max              =   3.0922557369289E+01
(PID.TID 0000.0001) %MON dynstat_sst_min              =  -1.9438283483649E+00
(PID.TID 0000.0001) %MON dynstat_sst_mean             =   1.8106061660149E+01
(PID.TID 0000.0001) %MON dynstat_sst_sd               =   9.8063240446894E+00
(PID.TID 0000.0001) %MON dynstat_sst_del2             =   1.5158400053659E-02
(PID.TID 0000.0001) %MON dynstat_sss_max              =   4.1365314996424E+01
(PID.TID 0000.0001) %MON dynstat_sss_min              =   1.8751383975948E+01
(PID.TID 0000.0001) %MON dynstat_sss_mean             =   3.4634826298896E+01
(PID.TID 0000.0001) %MON dynstat_sss_sd               =   1.4625026391733E+00
(PID.TID 0000.0001) %MON dynstat_sss_del2             =   8.7522275331846E-03
(PID.TID 0000.0001) %MON forcing_qnet_max             =   8.8352890625000E+03
(PID.TID 0000.0001) %MON forcing_qnet_min             =  -2.1818595384867E+03
(PID.TID 0000.0001) %MON forcing_qnet_mean            =  -6.7207974317370E+01
(PID.TID 0000.0001) %MON forcing_qnet_sd              =   4.0583734103145E+02
(PID.TID 0000.0001) %MON forcing_qnet_del2            =   1.2119314891038E+01
(PID.TID 0000.0001) %MON forcing_qsw_max              =   0.0000000000000E+00
(PID.TID 0000.0001) %MON forcing_qsw_min              =  -1.0475197902926E+02
(PID.TID 0000.0001) %MON forcing_qsw_mean             =  -2.0965934854917E+01
(PID.TID 0000.0001) %MON forcing_qsw_sd               =   2.9463845654591E+01
(PID.TID 0000.0001) %MON forcing_qsw_del2             =   1.7939887788538E-01
(PID.TID 0000.0001) %MON forcing_empmr_max            =   1.2832255102694E-02
(PID.TID 0000.0001) %MON forcing_empmr_min            =  -1.8174926936626E-01
(PID.TID 0000.0001) %MON forcing_empmr_mean           =  -4.6983229600939E-04
(PID.TID 0000.0001) %MON forcing_empmr_sd             =   6.9993558151199E-03
(PID.TID 0000.0001) %MON forcing_empmr_del2           =   2.8578362071123E-04
(PID.TID 0000.0001) %MON forcing_fu_max               =   6.6142307205183E-01
(PID.TID 0000.0001) %MON forcing_fu_min               =  -4.4226411515252E-01
(PID.TID 0000.0001) %MON forcing_fu_mean              =  -4.5111154233848E-03
(PID.TID 0000.0001) %MON forcing_fu_sd                =   7.5317980462526E-02
(PID.TID 0000.0001) %MON forcing_fu_del2              =   7.6397324799040E-04
(PID.TID 0000.0001) %MON forcing_fv_max               =   3.2352487659561E-01
(PID.TID 0000.0001) %MON forcing_fv_min               =  -3.5380710576874E-01
(PID.TID 0000.0001) %MON forcing_fv_mean              =  -1.1511756329007E-02
(PID.TID 0000.0001) %MON forcing_fv_sd                =   7.3793030675418E-02
(PID.TID 0000.0001) %MON forcing_fv_del2              =   6.5535571053238E-04
(PID.TID 0000.0001) %MON trAdv_CFL_u_max              =   6.2616926587032E-03
(PID.TID 0000.0001) %MON trAdv_CFL_v_max              =   7.3018972162774E-03
(PID.TID 0000.0001) %MON trAdv_CFL_w_max              =   5.5719036540114E-03
(PID.TID 0000.0001) %MON advcfl_uvel_max              =   6.3286900400121E-03
(PID.TID 0000.0001) %MON advcfl_vvel_max              =   3.8858658875254E-03
(PID.TID 0000.0001) %MON advcfl_wvel_max              =   6.3217137170875E-03
(PID.TID 0000.0001) %MON advcfl_W_hf_max              =   5.5719036540114E-03
(PID.TID 0000.0001) %MON pe_b_mean                    =   5.0131048924888E-04
(PID.TID 0000.0001) %MON ke_max                       =   1.1923783508014E+00
(PID.TID 0000.0001) %MON ke_mean                      =   1.8016029158227E-04
(PID.TID 0000.0001) %MON ke_vol                       =   1.3398080019580E+18
(PID.TID 0000.0001) %MON vort_r_min                   =  -8.6513449221448E-06
(PID.TID 0000.0001) %MON vort_r_max                   =   3.0977296339300E-06
(PID.TID 0000.0001) %MON vort_a_mean                  =  -2.0549865324846E-05
(PID.TID 0000.0001) %MON vort_a_sd                    =   7.5259516888740E-05
(PID.TID 0000.0001) %MON vort_p_mean                  =  -2.4783369692506E-05
(PID.TID 0000.0001) %MON vort_p_sd                    =   1.2811914176904E-04
(PID.TID 0000.0001) %MON surfExpan_theta_mean         =  -7.6171446315610E-06
(PID.TID 0000.0001) %MON surfExpan_salt_mean          =   1.5997107908858E-06
(PID.TID 0000.0001) // =======================================================
(PID.TID 0000.0001) // End MONITOR dynamic field statistics
(PID.TID 0000.0001) // =======================================================
(PID.TID 0000.0001) // =======================================================
(PID.TID 0000.0001) // Begin MONITOR SEAICE statistics
(PID.TID 0000.0001) // =======================================================
(PID.TID 0000.0001) %MON seaice_tsnumber              =                 72016
(PID.TID 0000.0001) %MON seaice_time_sec              =   6.4814400000000E+07
(PID.TID 0000.0001) %MON seaice_uice_max              =   1.8296993987231E+00
(PID.TID 0000.0001) %MON seaice_uice_min              =  -6.6987002541184E-01
(PID.TID 0000.0001) %MON seaice_uice_mean             =  -4.1465887498229E-03
(PID.TID 0000.0001) %MON seaice_uice_sd               =   7.1017070632275E-02
(PID.TID 0000.0001) %MON seaice_uice_del2             =   1.4806577326756E-03
(PID.TID 0000.0001) %MON seaice_vice_max              =   1.1553774890266E+00
(PID.TID 0000.0001) %MON seaice_vice_min              =  -1.4585441624483E+00
(PID.TID 0000.0001) %MON seaice_vice_mean             =  -1.2030758177601E-02
(PID.TID 0000.0001) %MON seaice_vice_sd               =   6.6435163272006E-02
(PID.TID 0000.0001) %MON seaice_vice_del2             =   1.6133389681671E-03
(PID.TID 0000.0001) %MON seaice_area_max              =   1.0000000000000E+00
(PID.TID 0000.0001) %MON seaice_area_min              =   0.0000000000000E+00
(PID.TID 0000.0001) %MON seaice_area_mean             =   6.9242623947874E-02
(PID.TID 0000.0001) %MON seaice_area_sd               =   2.3786853490408E-01
(PID.TID 0000.0001) %MON seaice_area_del2             =   1.7820894245457E-03
(PID.TID 0000.0001) %MON seaice_heff_max              =   8.4789685198594E+00
(PID.TID 0000.0001) %MON seaice_heff_min              =   0.0000000000000E+00
(PID.TID 0000.0001) %MON seaice_heff_mean             =   2.0598972371449E-01
(PID.TID 0000.0001) %MON seaice_heff_sd               =   9.7841630940499E-01
(PID.TID 0000.0001) %MON seaice_heff_del2             =   6.2351893843148E-03
(PID.TID 0000.0001) %MON seaice_hsnow_max             =   2.0315773245145E+00
(PID.TID 0000.0001) %MON seaice_hsnow_min             =   0.0000000000000E+00
(PID.TID 0000.0001) %MON seaice_hsnow_mean            =   2.2781878264434E-02
(PID.TID 0000.0001) %MON seaice_hsnow_sd              =   1.1956422241452E-01
(PID.TID 0000.0001) %MON seaice_hsnow_del2            =   1.4650391899140E-03
(PID.TID 0000.0001) // =======================================================
(PID.TID 0000.0001) // End MONITOR SEAICE statistics
(PID.TID 0000.0001) // =======================================================
 Compute Stats, Diag. #    211  SIarea    vol(   0 ): 1.456E+15  Parms: SM      M1      
 Compute Stats, Diag. #    214  SIheff    vol(   0 ): 1.456E+15  Parms: SM      M1      
 Compute Stats, Diag. #    216  SIhsnow   vol(   0 ): 1.456E+15  Parms: SM      M1      
 Compute Stats, Diag. #     83  sIceLoad  vol(   0 ): 1.456E+15  Parms: SM      U1      
 Compute Stats, Diag. #    220  SIuice    vol(   0 ): 1.383E+15  Parms: UU      M1      
 Compute Stats, Diag. #    221  SIvice    vol(   0 ): 1.391E+15  Parms: VV      M1      
 Compute Stats, Diag. #    222  SItaux    vol(   0 ): 1.383E+15  Parms: UU      U1      
 Compute Stats, Diag. #    223  SItauy    vol(   0 ): 1.391E+15  Parms: VV      U1      
 SEAICE_LSR: Residual Initial ipass,Uice,Vice=    1  7.47505982E-03  7.32688897E-03
 SEAICE_LSR (ipass=   1) iters,dU,Resid=    10  2.77542098E-05  1.05055765E-04
 SEAICE_LSR (ipass=   1) iters,dV,Resid=    10  4.74677736E-05  1.50867731E-04
 SEAICE_LSR: Residual Initial ipass,Uice,Vice=    2  6.64208293E-03  6.38633161E-03
 SEAICE_LSR (ipass=   2) iters,dU,Resid=     8  4.37539667E-05  1.60832813E-04
 SEAICE_LSR (ipass=   2) iters,dV,Resid=     8  5.05133065E-05  2.06970254E-04
 cg2d: Sum(rhs),rhsMax =  -1.60376544324482E+01  8.62980060278275E+01
(PID.TID 0000.0001)      cg2d_init_res =   2.59293187939420E-01
(PID.TID 0000.0001)      cg2d_iters(min,last) =      -1      10
(PID.TID 0000.0001)      cg2d_last_res =   3.91838699874211E-08
(PID.TID 0000.0001) // =======================================================
(PID.TID 0000.0001) // Begin MONITOR dynamic field statistics
(PID.TID 0000.0001) // =======================================================
(PID.TID 0000.0001) %MON time_tsnumber                =                 72017
(PID.TID 0000.0001) %MON time_secondsf                =   6.4815300000000E+07
(PID.TID 0000.0001) %MON dynstat_eta_max              =   3.9461355081438E+00
(PID.TID 0000.0001) %MON dynstat_eta_min              =  -2.2821214304555E+00
(PID.TID 0000.0001) %MON dynstat_eta_mean             =   1.6082101018877E-02
(PID.TID 0000.0001) %MON dynstat_eta_sd               =   6.1462047901213E-01
(PID.TID 0000.0001) %MON dynstat_eta_del2             =   3.3503747821968E-03
(PID.TID 0000.0001) %MON dynstat_uvel_max             =   1.8201703183404E+00
(PID.TID 0000.0001) %MON dynstat_uvel_min             =  -9.2052259729558E-01
(PID.TID 0000.0001) %MON dynstat_uvel_mean            =  -4.6442949375812E-05
(PID.TID 0000.0001) %MON dynstat_uvel_sd              =   1.3882726765798E-02
(PID.TID 0000.0001) %MON dynstat_uvel_del2            =   1.2417984049384E-04
(PID.TID 0000.0001) %MON dynstat_vvel_max             =   9.8309543393302E-01
(PID.TID 0000.0001) %MON dynstat_vvel_min             =  -1.1651973745526E+00
(PID.TID 0000.0001) %MON dynstat_vvel_mean            =  -4.3153065279860E-04
(PID.TID 0000.0001) %MON dynstat_vvel_sd              =   1.3828495803569E-02
(PID.TID 0000.0001) %MON dynstat_vvel_del2            =   1.2592094728378E-04
(PID.TID 0000.0001) %MON dynstat_wvel_max             =   1.3007807812001E-04
(PID.TID 0000.0001) %MON dynstat_wvel_min             =  -5.1827194147714E-04
(PID.TID 0000.0001) %MON dynstat_wvel_mean            =  -3.8558808522000E-07
(PID.TID 0000.0001) %MON dynstat_wvel_sd              =   8.7024327697979E-06
(PID.TID 0000.0001) %MON dynstat_wvel_del2            =   8.0740576199595E-08
(PID.TID 0000.0001) %MON dynstat_theta_max            =   3.0922441103092E+01
(PID.TID 0000.0001) %MON dynstat_theta_min            =  -3.0087639009472E+00
(PID.TID 0000.0001) %MON dynstat_theta_mean           =   3.9090690128633E+00
(PID.TID 0000.0001) %MON dynstat_theta_sd             =   4.5711492276180E+00
(PID.TID 0000.0001) %MON dynstat_theta_del2           =   2.6478457752199E-03
(PID.TID 0000.0001) %MON dynstat_salt_max             =   4.1364478374314E+01
(PID.TID 0000.0001) %MON dynstat_salt_min             =   1.8518539786092E+01
(PID.TID 0000.0001) %MON dynstat_salt_mean            =   3.4772092424126E+01
(PID.TID 0000.0001) %MON dynstat_salt_sd              =   5.3117932354711E-01
(PID.TID 0000.0001) %MON dynstat_salt_del2            =   8.5554169860269E-04
(PID.TID 0000.0001) %MON dynstat_sst_max              =   3.0922441103092E+01
(PID.TID 0000.0001) %MON dynstat_sst_min              =  -1.9435736612603E+00
(PID.TID 0000.0001) %MON dynstat_sst_mean             =   1.8106338770042E+01
(PID.TID 0000.0001) %MON dynstat_sst_sd               =   9.8066081156981E+00
(PID.TID 0000.0001) %MON dynstat_sst_del2             =   1.5153933317407E-02
(PID.TID 0000.0001) %MON dynstat_sss_max              =   4.1364478374314E+01
(PID.TID 0000.0001) %MON dynstat_sss_min              =   1.8751384651542E+01
(PID.TID 0000.0001) %MON dynstat_sss_mean             =   3.4634424034594E+01
(PID.TID 0000.0001) %MON dynstat_sss_sd               =   1.4629839243159E+00
(PID.TID 0000.0001) %MON dynstat_sss_del2             =   8.8304156432106E-03
(PID.TID 0000.0001) %MON forcing_qnet_max             =   1.0170839843750E+04
(PID.TID 0000.0001) %MON forcing_qnet_min             =  -2.1816170711268E+03
(PID.TID 0000.0001) %MON forcing_qnet_mean            =  -6.2728316564139E+01
(PID.TID 0000.0001) %MON forcing_qnet_sd              =   3.8100087547219E+02
(PID.TID 0000.0001) %MON forcing_qnet_del2            =   1.1875222206421E+01
(PID.TID 0000.0001) %MON forcing_qsw_max              =   0.0000000000000E+00
(PID.TID 0000.0001) %MON forcing_qsw_min              =  -1.0660225049211E+02
(PID.TID 0000.0001) %MON forcing_qsw_mean             =  -2.0454453295914E+01
(PID.TID 0000.0001) %MON forcing_qsw_sd               =   2.9027155519953E+01
(PID.TID 0000.0001) %MON forcing_qsw_del2             =   1.8653931316358E-01
(PID.TID 0000.0001) %MON forcing_empmr_max            =   1.2641799636185E-02
(PID.TID 0000.0001) %MON forcing_empmr_min            =  -1.7516922950745E-01
(PID.TID 0000.0001) %MON forcing_empmr_mean           =  -4.6394226313123E-04
(PID.TID 0000.0001) %MON forcing_empmr_sd             =   6.9041751650913E-03
(PID.TID 0000.0001) %MON forcing_empmr_del2           =   2.8215058975960E-04
(PID.TID 0000.0001) %MON forcing_fu_max               =   6.4754995688795E-01
(PID.TID 0000.0001) %MON forcing_fu_min               =  -4.3328184896254E-01
(PID.TID 0000.0001) %MON forcing_fu_mean              =  -4.4169049891622E-03
(PID.TID 0000.0001) %MON forcing_fu_sd                =   7.4827400172611E-02
(PID.TID 0000.0001) %MON forcing_fu_del2              =   7.5647160621370E-04
(PID.TID 0000.0001) %MON forcing_fv_max               =   3.1894800023283E-01
(PID.TID 0000.0001) %MON forcing_fv_min               =  -3.5885233900997E-01
(PID.TID 0000.0001) %MON forcing_fv_mean              =  -1.1354135651383E-02
(PID.TID 0000.0001) %MON forcing_fv_sd                =   7.3389117184407E-02
(PID.TID 0000.0001) %MON forcing_fv_del2              =   6.5133946419940E-04
(PID.TID 0000.0001) %MON trAdv_CFL_u_max              =   6.0209844089878E-03
(PID.TID 0000.0001) %MON trAdv_CFL_v_max              =   6.6326035130588E-03
(PID.TID 0000.0001) %MON trAdv_CFL_w_max              =   5.2723050177046E-03
(PID.TID 0000.0001) %MON advcfl_uvel_max              =   6.0698432439261E-03
(PID.TID 0000.0001) %MON advcfl_vvel_max              =   3.4918278484639E-03
(PID.TID 0000.0001) %MON advcfl_wvel_max              =   6.0928427654764E-03
(PID.TID 0000.0001) %MON advcfl_W_hf_max              =   5.2723050177046E-03
(PID.TID 0000.0001) %MON pe_b_mean                    =   5.0358631194635E-04
(PID.TID 0000.0001) %MON ke_max                       =   1.0002979294833E+00
(PID.TID 0000.0001) %MON ke_mean                      =   1.7734610042270E-04
(PID.TID 0000.0001) %MON ke_vol                       =   1.3398081506239E+18
(PID.TID 0000.0001) %MON vort_r_min                   =  -8.7932650150485E-06
(PID.TID 0000.0001) %MON vort_r_max                   =   3.0499989320650E-06
(PID.TID 0000.0001) %MON vort_a_mean                  =  -2.0549865324846E-05
(PID.TID 0000.0001) %MON vort_a_sd                    =   7.5259516188236E-05
(PID.TID 0000.0001) %MON vort_p_mean                  =  -2.4783366324412E-05
(PID.TID 0000.0001) %MON vort_p_sd                    =   1.2811914553021E-04
(PID.TID 0000.0001) %MON surfExpan_theta_mean         =  -7.5658444639534E-06
(PID.TID 0000.0001) %MON surfExpan_salt_mean          =   1.5837259428506E-06
(PID.TID 0000.0001) // =======================================================
(PID.TID 0000.0001) // End MONITOR dynamic field statistics
(PID.TID 0000.0001) // =======================================================
(PID.TID 0000.0001) // =======================================================
(PID.TID 0000.0001) // Begin MONITOR SEAICE statistics
(PID.TID 0000.0001) // =======================================================
(PID.TID 0000.0001) %MON seaice_tsnumber              =                 72017
(PID.TID 0000.0001) %MON seaice_time_sec              =   6.4815300000000E+07
(PID.TID 0000.0001) %MON seaice_uice_max              =   1.7616839230144E+00
(PID.TID 0000.0001) %MON seaice_uice_min              =  -6.5594943517639E-01
(PID.TID 0000.0001) %MON seaice_uice_mean             =  -4.1572745054178E-03
(PID.TID 0000.0001) %MON seaice_uice_sd               =   6.9969770283916E-02
(PID.TID 0000.0001) %MON seaice_uice_del2             =   1.4202169929229E-03
(PID.TID 0000.0001) %MON seaice_vice_max              =   1.0684485579183E+00
(PID.TID 0000.0001) %MON seaice_vice_min              =  -1.3456816587895E+00
(PID.TID 0000.0001) %MON seaice_vice_mean             =  -1.2174481997260E-02
(PID.TID 0000.0001) %MON seaice_vice_sd               =   6.5305164684562E-02
(PID.TID 0000.0001) %MON seaice_vice_del2             =   1.4937275594336E-03
(PID.TID 0000.0001) %MON seaice_area_max              =   1.0000000000000E+00
(PID.TID 0000.0001) %MON seaice_area_min              =   0.0000000000000E+00
(PID.TID 0000.0001) %MON seaice_area_mean             =   6.9245979903765E-02
(PID.TID 0000.0001) %MON seaice_area_sd               =   2.3788014672115E-01
(PID.TID 0000.0001) %MON seaice_area_del2             =   1.7810131422574E-03
(PID.TID 0000.0001) %MON seaice_heff_max              =   8.4813830631180E+00
(PID.TID 0000.0001) %MON seaice_heff_min              =   0.0000000000000E+00
(PID.TID 0000.0001) %MON seaice_heff_mean             =   2.0600361153968E-01
(PID.TID 0000.0001) %MON seaice_heff_sd               =   9.7851483672825E-01
(PID.TID 0000.0001) %MON seaice_heff_del2             =   6.2355116563213E-03
(PID.TID 0000.0001) %MON seaice_hsnow_max             =   2.0315790204151E+00
(PID.TID 0000.0001) %MON seaice_hsnow_min             =   0.0000000000000E+00
(PID.TID 0000.0001) %MON seaice_hsnow_mean            =   2.2780649514654E-02
(PID.TID 0000.0001) %MON seaice_hsnow_sd              =   1.1956138912325E-01
(PID.TID 0000.0001) %MON seaice_hsnow_del2            =   1.4649764418214E-03
(PID.TID 0000.0001) // =======================================================
(PID.TID 0000.0001) // End MONITOR SEAICE statistics
(PID.TID 0000.0001) // =======================================================
 Computing Diagnostic #    211  SIarea       Counter:       1   Parms: SM      M1      
 Computing Diagnostic #    214  SIheff       Counter:       1   Parms: SM      M1      
 Computing Diagnostic #    216  SIhsnow      Counter:       1   Parms: SM      M1      
 Computing Diagnostic #     83  sIceLoad     Counter:       1   Parms: SM      U1      
 Computing Diagnostic #    220  SIuice       Counter:       1   Parms: UU      M1      
           Vector  Mate for  SIuice       Diagnostic #    221  SIvice   exists 
 Computing Diagnostic #    221  SIvice       Counter:       1   Parms: VV      M1      
           Vector  Mate for  SIvice       Diagnostic #    220  SIuice   exists 
 Computing Diagnostic #    222  SItaux       Counter:       1   Parms: UU      U1      
           Vector  Mate for  SItaux       Diagnostic #    223  SItauy   exists 
 Computing Diagnostic #    223  SItauy       Counter:       1   Parms: VV      U1      
           Vector  Mate for  SItauy       Diagnostic #    222  SItaux   exists 
 Computing Diagnostic #      1  SDIAG1       Counter:       1   Parms: SM      L1      
 Computing Diagnostic #    282  SIareaN      Counter:       1   Parms: SM      MX      
 Computing Diagnostic #    281  SIheffN      Counter:       1   Parms: SM      MX      
 Computing Diagnostic #    283  SIhsnowN     Counter:       1   Parms: SM      MX      
 SEAICE_LSR: Residual Initial ipass,Uice,Vice=    1  7.50401581E-03  7.53279354E-03
 SEAICE_LSR (ipass=   1) iters,dU,Resid=     8  5.80213451E-05  1.74240062E-04
 SEAICE_LSR (ipass=   1) iters,dV,Resid=     8  9.15116888E-05  2.10500006E-04
 SEAICE_LSR: Residual Initial ipass,Uice,Vice=    2  6.63336446E-03  6.53507680E-03
 SEAICE_LSR (ipass=   2) iters,dU,Resid=     8  4.98515395E-05  1.55757786E-04
 SEAICE_LSR (ipass=   2) iters,dV,Resid=     8  4.02740105E-05  1.71306206E-04
 cg2d: Sum(rhs),rhsMax =  -1.60067844413802E+01  8.86086762250814E+01
(PID.TID 0000.0001)      cg2d_init_res =   2.27675580113191E-01
(PID.TID 0000.0001)      cg2d_iters(min,last) =      -1      10
(PID.TID 0000.0001)      cg2d_last_res =   3.48665519980418E-08
(PID.TID 0000.0001) // =======================================================
(PID.TID 0000.0001) // Begin MONITOR dynamic field statistics
(PID.TID 0000.0001) // =======================================================
(PID.TID 0000.0001) %MON time_tsnumber                =                 72018
(PID.TID 0000.0001) %MON time_secondsf                =   6.4816200000000E+07
(PID.TID 0000.0001) %MON dynstat_eta_max              =   4.0500555027615E+00
(PID.TID 0000.0001) %MON dynstat_eta_min              =  -2.8067175621879E+00
(PID.TID 0000.0001) %MON dynstat_eta_mean             =   1.6480922536970E-02
(PID.TID 0000.0001) %MON dynstat_eta_sd               =   6.1603356211601E-01
(PID.TID 0000.0001) %MON dynstat_eta_del2             =   3.5335870843625E-03
(PID.TID 0000.0001) %MON dynstat_uvel_max             =   1.7235345376513E+00
(PID.TID 0000.0001) %MON dynstat_uvel_min             =  -8.8794724607502E-01
(PID.TID 0000.0001) %MON dynstat_uvel_mean            =  -2.6588966185402E-05
(PID.TID 0000.0001) %MON dynstat_uvel_sd              =   1.3742005200068E-02
(PID.TID 0000.0001) %MON dynstat_uvel_del2            =   1.1880611057106E-04
(PID.TID 0000.0001) %MON dynstat_vvel_max             =   8.7191764068495E-01
(PID.TID 0000.0001) %MON dynstat_vvel_min             =  -1.0184824055932E+00
(PID.TID 0000.0001) %MON dynstat_vvel_mean            =  -4.3108871672188E-04
(PID.TID 0000.0001) %MON dynstat_vvel_sd              =   1.3762021611150E-02
(PID.TID 0000.0001) %MON dynstat_vvel_del2            =   1.1763556052572E-04
(PID.TID 0000.0001) %MON dynstat_wvel_max             =   1.2407773456498E-04
(PID.TID 0000.0001) %MON dynstat_wvel_min             =  -4.8437178356905E-04
(PID.TID 0000.0001) %MON dynstat_wvel_mean            =  -3.7064599342846E-07
(PID.TID 0000.0001) %MON dynstat_wvel_sd              =   8.8403886685204E-06
(PID.TID 0000.0001) %MON dynstat_wvel_del2            =   8.1372248195443E-08
(PID.TID 0000.0001) %MON dynstat_theta_max            =   3.0922341174503E+01
(PID.TID 0000.0001) %MON dynstat_theta_min            =  -3.0082757545250E+00
(PID.TID 0000.0001) %MON dynstat_theta_mean           =   3.9090747273280E+00
(PID.TID 0000.0001) %MON dynstat_theta_sd             =   4.5711717806946E+00
(PID.TID 0000.0001) %MON dynstat_theta_del2           =   2.6476862304785E-03
(PID.TID 0000.0001) %MON dynstat_salt_max             =   4.1363684961058E+01
(PID.TID 0000.0001) %MON dynstat_salt_min             =   1.8518549647051E+01
(PID.TID 0000.0001) %MON dynstat_salt_mean            =   3.4772087038303E+01
(PID.TID 0000.0001) %MON dynstat_salt_sd              =   5.3119886464349E-01
(PID.TID 0000.0001) %MON dynstat_salt_del2            =   8.6075761400685E-04
(PID.TID 0000.0001) %MON dynstat_sst_max              =   3.0922341174503E+01
(PID.TID 0000.0001) %MON dynstat_sst_min              =  -1.9433160677100E+00
(PID.TID 0000.0001) %MON dynstat_sst_mean             =   1.8106592197073E+01
(PID.TID 0000.0001) %MON dynstat_sst_sd               =   9.8068725591145E+00
(PID.TID 0000.0001) %MON dynstat_sst_del2             =   1.5150178308336E-02
(PID.TID 0000.0001) %MON dynstat_sss_max              =   4.1363684961058E+01
(PID.TID 0000.0001) %MON dynstat_sss_min              =   1.8751385361448E+01
(PID.TID 0000.0001) %MON dynstat_sss_mean             =   3.4634032759089E+01
(PID.TID 0000.0001) %MON dynstat_sss_sd               =   1.4634698559459E+00
(PID.TID 0000.0001) %MON dynstat_sss_del2             =   8.9100045944379E-03
(PID.TID 0000.0001) %MON forcing_qnet_max             =   1.0958465820312E+04
(PID.TID 0000.0001) %MON forcing_qnet_min             =  -2.1554564585406E+03
(PID.TID 0000.0001) %MON forcing_qnet_mean            =  -5.7713155227240E+01
(PID.TID 0000.0001) %MON forcing_qnet_sd              =   3.7303710870171E+02
(PID.TID 0000.0001) %MON forcing_qnet_del2            =   1.1972869753234E+01
(PID.TID 0000.0001) %MON forcing_qsw_max              =   0.0000000000000E+00
(PID.TID 0000.0001) %MON forcing_qsw_min              =  -1.0701869850505E+02
(PID.TID 0000.0001) %MON forcing_qsw_mean             =  -2.0206915637751E+01
(PID.TID 0000.0001) %MON forcing_qsw_sd               =   2.8775184585531E+01
(PID.TID 0000.0001) %MON forcing_qsw_del2             =   1.8960931517051E-01
(PID.TID 0000.0001) %MON forcing_empmr_max            =   1.2321207672358E-02
(PID.TID 0000.0001) %MON forcing_empmr_min            =  -1.6871722042561E-01
(PID.TID 0000.0001) %MON forcing_empmr_mean           =  -4.5864474580692E-04
(PID.TID 0000.0001) %MON forcing_empmr_sd             =   6.8101463142806E-03
(PID.TID 0000.0001) %MON forcing_empmr_del2           =   2.7853221223915E-04
(PID.TID 0000.0001) %MON forcing_fu_max               =   6.3128577530068E-01
(PID.TID 0000.0001) %MON forcing_fu_min               =  -4.2718039391605E-01
(PID.TID 0000.0001) %MON forcing_fu_mean              =  -4.3447094384844E-03
(PID.TID 0000.0001) %MON forcing_fu_sd                =   7.4311131565450E-02
(PID.TID 0000.0001) %MON forcing_fu_del2              =   7.4788809444880E-04
(PID.TID 0000.0001) %MON forcing_fv_max               =   3.1383735713689E-01
(PID.TID 0000.0001) %MON forcing_fv_min               =  -3.5977444762489E-01
(PID.TID 0000.0001) %MON forcing_fv_mean              =  -1.1250896731553E-02
(PID.TID 0000.0001) %MON forcing_fv_sd                =   7.2894881352480E-02
(PID.TID 0000.0001) %MON forcing_fv_del2              =   6.4574412195554E-04
(PID.TID 0000.0001) %MON trAdv_CFL_u_max              =   5.7154545034493E-03
(PID.TID 0000.0001) %MON trAdv_CFL_v_max              =   5.8713254358047E-03
(PID.TID 0000.0001) %MON trAdv_CFL_w_max              =   4.9728269751544E-03
(PID.TID 0000.0001) %MON advcfl_uvel_max              =   5.7475854669330E-03
(PID.TID 0000.0001) %MON advcfl_vvel_max              =   3.0521569175234E-03
(PID.TID 0000.0001) %MON advcfl_wvel_max              =   5.8684250582819E-03
(PID.TID 0000.0001) %MON advcfl_W_hf_max              =   4.9728269751544E-03
(PID.TID 0000.0001) %MON pe_b_mean                    =   5.0592023868879E-04
(PID.TID 0000.0001) %MON ke_max                       =   8.3817165864247E-01
(PID.TID 0000.0001) %MON ke_mean                      =   1.7470851579127E-04
(PID.TID 0000.0001) %MON ke_vol                       =   1.3398082974260E+18
(PID.TID 0000.0001) %MON vort_r_min                   =  -8.8152354690863E-06
(PID.TID 0000.0001) %MON vort_r_max                   =   2.9860093578591E-06
(PID.TID 0000.0001) %MON vort_a_mean                  =  -2.0549865324846E-05
(PID.TID 0000.0001) %MON vort_a_sd                    =   7.5259515720371E-05
(PID.TID 0000.0001) %MON vort_p_mean                  =  -2.4783363091611E-05
(PID.TID 0000.0001) %MON vort_p_sd                    =   1.2811915074041E-04
(PID.TID 0000.0001) %MON surfExpan_theta_mean         =  -7.5154529474701E-06
(PID.TID 0000.0001) %MON surfExpan_salt_mean          =   1.5610069192339E-06
(PID.TID 0000.0001) // =======================================================
(PID.TID 0000.0001) // End MONITOR dynamic field statistics
(PID.TID 0000.0001) // =======================================================
(PID.TID 0000.0001) // =======================================================
(PID.TID 0000.0001) // Begin MONITOR SEAICE statistics
(PID.TID 0000.0001) // =======================================================
(PID.TID 0000.0001) %MON seaice_tsnumber              =                 72018
(PID.TID 0000.0001) %MON seaice_time_sec              =   6.4816200000000E+07
(PID.TID 0000.0001) %MON seaice_uice_max              =   1.6746268757823E+00
(PID.TID 0000.0001) %MON seaice_uice_min              =  -6.3380238237428E-01
(PID.TID 0000.0001) %MON seaice_uice_mean             =  -4.1820829784773E-03
(PID.TID 0000.0001) %MON seaice_uice_sd               =   6.8741028483862E-02
(PID.TID 0000.0001) %MON seaice_uice_del2             =   1.3539416231321E-03
(PID.TID 0000.0001) %MON seaice_vice_max              =   9.6927119068418E-01
(PID.TID 0000.0001) %MON seaice_vice_min              =  -1.2135953472487E+00
(PID.TID 0000.0001) %MON seaice_vice_mean             =  -1.2311870163228E-02
(PID.TID 0000.0001) %MON seaice_vice_sd               =   6.4228377075756E-02
(PID.TID 0000.0001) %MON seaice_vice_del2             =   1.3757022629299E-03
(PID.TID 0000.0001) %MON seaice_area_max              =   1.0000000000000E+00
(PID.TID 0000.0001) %MON seaice_area_min              =   0.0000000000000E+00
(PID.TID 0000.0001) %MON seaice_area_mean             =   6.9248545830012E-02
(PID.TID 0000.0001) %MON seaice_area_sd               =   2.3788950747709E-01
(PID.TID 0000.0001) %MON seaice_area_del2             =   1.7800110789313E-03
(PID.TID 0000.0001) %MON seaice_heff_max              =   8.4837243165023E+00
(PID.TID 0000.0001) %MON seaice_heff_min              =   0.0000000000000E+00
(PID.TID 0000.0001) %MON seaice_heff_mean             =   2.0601649534164E-01
(PID.TID 0000.0001) %MON seaice_heff_sd               =   9.7860910825478E-01
(PID.TID 0000.0001) %MON seaice_heff_del2             =   6.2358254923562E-03
(PID.TID 0000.0001) %MON seaice_hsnow_max             =   2.0315885974858E+00
(PID.TID 0000.0001) %MON seaice_hsnow_min             =   0.0000000000000E+00
(PID.TID 0000.0001) %MON seaice_hsnow_mean            =   2.2779272282189E-02
(PID.TID 0000.0001) %MON seaice_hsnow_sd              =   1.1955843826615E-01
(PID.TID 0000.0001) %MON seaice_hsnow_del2            =   1.4649142918201E-03
(PID.TID 0000.0001) // =======================================================
(PID.TID 0000.0001) // End MONITOR SEAICE statistics
(PID.TID 0000.0001) // =======================================================
 SEAICE_LSR: Residual Initial ipass,Uice,Vice=    1  8.12175716E-03  6.31316053E-03
 SEAICE_LSR (ipass=   1) iters,dU,Resid=     8  6.32935586E-05  2.19868705E-04
 SEAICE_LSR (ipass=   1) iters,dV,Resid=     8  6.54172579E-05  1.80340147E-04
 SEAICE_LSR: Residual Initial ipass,Uice,Vice=    2  5.82171570E-03  4.97936994E-03
 SEAICE_LSR (ipass=   2) iters,dU,Resid=     6  7.39123490E-05  3.10530224E-04
 SEAICE_LSR (ipass=   2) iters,dV,Resid=     6  7.08261974E-05  2.61834189E-04
 cg2d: Sum(rhs),rhsMax =  -1.61415335796067E+01  8.99673942022172E+01
(PID.TID 0000.0001)      cg2d_init_res =   2.06013450305202E-01
(PID.TID 0000.0001)      cg2d_iters(min,last) =      -1      10
(PID.TID 0000.0001)      cg2d_last_res =   3.10771555159348E-08
(PID.TID 0000.0001) // =======================================================
(PID.TID 0000.0001) // Begin MONITOR dynamic field statistics
(PID.TID 0000.0001) // =======================================================
(PID.TID 0000.0001) %MON time_tsnumber                =                 72019
(PID.TID 0000.0001) %MON time_secondsf                =   6.4817100000000E+07
(PID.TID 0000.0001) %MON dynstat_eta_max              =   4.1108774749313E+00
(PID.TID 0000.0001) %MON dynstat_eta_min              =  -3.2618777544587E+00
(PID.TID 0000.0001) %MON dynstat_eta_mean             =   1.6874507602784E-02
(PID.TID 0000.0001) %MON dynstat_eta_sd               =   6.1736975436229E-01
(PID.TID 0000.0001) %MON dynstat_eta_del2             =   3.6754279429023E-03
(PID.TID 0000.0001) %MON dynstat_uvel_max             =   1.6087375755114E+00
(PID.TID 0000.0001) %MON dynstat_uvel_min             =  -8.4973226014921E-01
(PID.TID 0000.0001) %MON dynstat_uvel_mean            =  -8.9099044992677E-06
(PID.TID 0000.0001) %MON dynstat_uvel_sd              =   1.3601856139364E-02
(PID.TID 0000.0001) %MON dynstat_uvel_del2            =   1.1346493037515E-04
(PID.TID 0000.0001) %MON dynstat_vvel_max             =   7.5321236058241E-01
(PID.TID 0000.0001) %MON dynstat_vvel_min             =  -8.5969388375770E-01
(PID.TID 0000.0001) %MON dynstat_vvel_mean            =  -4.3027978901112E-04
(PID.TID 0000.0001) %MON dynstat_vvel_sd              =   1.3718950131499E-02
(PID.TID 0000.0001) %MON dynstat_vvel_del2            =   1.1089726010681E-04
(PID.TID 0000.0001) %MON dynstat_wvel_max             =   1.1026442559373E-04
(PID.TID 0000.0001) %MON dynstat_wvel_min             =  -4.4421304156499E-04
(PID.TID 0000.0001) %MON dynstat_wvel_mean            =  -3.5504072359242E-07
(PID.TID 0000.0001) %MON dynstat_wvel_sd              =   8.9923277136455E-06
(PID.TID 0000.0001) %MON dynstat_wvel_del2            =   8.1955250403924E-08
(PID.TID 0000.0001) %MON dynstat_theta_max            =   3.0922258145449E+01
(PID.TID 0000.0001) %MON dynstat_theta_min            =  -3.0077988526873E+00
(PID.TID 0000.0001) %MON dynstat_theta_mean           =   3.9090801597126E+00
(PID.TID 0000.0001) %MON dynstat_theta_sd             =   4.5711930171631E+00
(PID.TID 0000.0001) %MON dynstat_theta_del2           =   2.6475484580956E-03
(PID.TID 0000.0001) %MON dynstat_salt_max             =   4.1362937319587E+01
(PID.TID 0000.0001) %MON dynstat_salt_min             =   1.8518559503726E+01
(PID.TID 0000.0001) %MON dynstat_salt_mean            =   3.4772081827704E+01
(PID.TID 0000.0001) %MON dynstat_salt_sd              =   5.3121856883634E-01
(PID.TID 0000.0001) %MON dynstat_salt_del2            =   8.6606011397551E-04
(PID.TID 0000.0001) %MON dynstat_sst_max              =   3.0922258145449E+01
(PID.TID 0000.0001) %MON dynstat_sst_min              =  -1.9430641135341E+00
(PID.TID 0000.0001) %MON dynstat_sst_mean             =   1.8106829099307E+01
(PID.TID 0000.0001) %MON dynstat_sst_sd               =   9.8071182041478E+00
(PID.TID 0000.0001) %MON dynstat_sst_del2             =   1.5147031942334E-02
(PID.TID 0000.0001) %MON dynstat_sss_max              =   4.1362937319587E+01
(PID.TID 0000.0001) %MON dynstat_sss_min              =   1.8751386033419E+01
(PID.TID 0000.0001) %MON dynstat_sss_mean             =   3.4633653978922E+01
(PID.TID 0000.0001) %MON dynstat_sss_sd               =   1.4639608497515E+00
(PID.TID 0000.0001) %MON dynstat_sss_del2             =   8.9907019789477E-03
(PID.TID 0000.0001) %MON forcing_qnet_max             =   9.6446796875000E+03
(PID.TID 0000.0001) %MON forcing_qnet_min             =  -2.0874847842051E+03
(PID.TID 0000.0001) %MON forcing_qnet_mean            =  -5.3500622070970E+01
(PID.TID 0000.0001) %MON forcing_qnet_sd              =   3.5234189969333E+02
(PID.TID 0000.0001) %MON forcing_qnet_del2            =   1.0912833664639E+01
(PID.TID 0000.0001) %MON forcing_qsw_max              =   0.0000000000000E+00
(PID.TID 0000.0001) %MON forcing_qsw_min              =  -1.0700353033796E+02
(PID.TID 0000.0001) %MON forcing_qsw_mean             =  -1.9910370245514E+01
(PID.TID 0000.0001) %MON forcing_qsw_sd               =   2.8469395627347E+01
(PID.TID 0000.0001) %MON forcing_qsw_del2             =   1.9222910517026E-01
(PID.TID 0000.0001) %MON forcing_empmr_max            =   1.1918067932129E-02
(PID.TID 0000.0001) %MON forcing_empmr_min            =  -1.6350510716438E-01
(PID.TID 0000.0001) %MON forcing_empmr_mean           =  -4.5262282568637E-04
(PID.TID 0000.0001) %MON forcing_empmr_sd             =   6.7116163095595E-03
(PID.TID 0000.0001) %MON forcing_empmr_del2           =   2.7438379297118E-04
(PID.TID 0000.0001) %MON forcing_fu_max               =   6.1944251637390E-01
(PID.TID 0000.0001) %MON forcing_fu_min               =  -4.2053083213832E-01
(PID.TID 0000.0001) %MON forcing_fu_mean              =  -4.2883961124499E-03
(PID.TID 0000.0001) %MON forcing_fu_sd                =   7.3827957018151E-02
(PID.TID 0000.0001) %MON forcing_fu_del2              =   7.4029837778185E-04
(PID.TID 0000.0001) %MON forcing_fv_max               =   3.1044824772343E-01
(PID.TID 0000.0001) %MON forcing_fv_min               =  -3.6074428588202E-01
(PID.TID 0000.0001) %MON forcing_fv_mean              =  -1.1183046758295E-02
(PID.TID 0000.0001) %MON forcing_fv_sd                =   7.2403956710084E-02
(PID.TID 0000.0001) %MON forcing_fv_del2              =   6.4077794705247E-04
(PID.TID 0000.0001) %MON trAdv_CFL_u_max              =   5.3476745127141E-03
(PID.TID 0000.0001) %MON trAdv_CFL_v_max              =   5.0350827306492E-03
(PID.TID 0000.0001) %MON trAdv_CFL_w_max              =   4.6731968459897E-03
(PID.TID 0000.0001) %MON advcfl_uvel_max              =   5.3647643880222E-03
(PID.TID 0000.0001) %MON advcfl_vvel_max              =   2.6304649610485E-03
(PID.TID 0000.0001) %MON advcfl_wvel_max              =   5.6871341622394E-03
(PID.TID 0000.0001) %MON advcfl_W_hf_max              =   4.6731968459897E-03
(PID.TID 0000.0001) %MON pe_b_mean                    =   5.0813318890439E-04
(PID.TID 0000.0001) %MON ke_max                       =   7.4236032361864E-01
(PID.TID 0000.0001) %MON ke_mean                      =   1.7239826307704E-04
(PID.TID 0000.0001) %MON ke_vol                       =   1.3398084425519E+18
(PID.TID 0000.0001) %MON vort_r_min                   =  -8.7166457060881E-06
(PID.TID 0000.0001) %MON vort_r_max                   =   2.9075073898434E-06
(PID.TID 0000.0001) %MON vort_a_mean                  =  -2.0549865324846E-05
(PID.TID 0000.0001) %MON vort_a_sd                    =   7.5259515358569E-05
(PID.TID 0000.0001) %MON vort_p_mean                  =  -2.4783359980626E-05
(PID.TID 0000.0001) %MON vort_p_sd                    =   1.2811915487781E-04
(PID.TID 0000.0001) %MON surfExpan_theta_mean         =  -7.4521604833796E-06
(PID.TID 0000.0001) %MON surfExpan_salt_mean          =   1.5328601153751E-06
(PID.TID 0000.0001) // =======================================================
(PID.TID 0000.0001) // End MONITOR dynamic field statistics
(PID.TID 0000.0001) // =======================================================
(PID.TID 0000.0001) // =======================================================
(PID.TID 0000.0001) // Begin MONITOR SEAICE statistics
(PID.TID 0000.0001) // =======================================================
(PID.TID 0000.0001) %MON seaice_tsnumber              =                 72019
(PID.TID 0000.0001) %MON seaice_time_sec              =   6.4817100000000E+07
(PID.TID 0000.0001) %MON seaice_uice_max              =   1.5697940276150E+00
(PID.TID 0000.0001) %MON seaice_uice_min              =  -6.0439949854208E-01
(PID.TID 0000.0001) %MON seaice_uice_mean             =  -4.2408540319133E-03
(PID.TID 0000.0001) %MON seaice_uice_sd               =   6.7359218508765E-02
(PID.TID 0000.0001) %MON seaice_uice_del2             =   1.2844922645001E-03
(PID.TID 0000.0001) %MON seaice_vice_max              =   8.6024049796331E-01
(PID.TID 0000.0001) %MON seaice_vice_min              =  -1.0653304690984E+00
(PID.TID 0000.0001) %MON seaice_vice_mean             =  -1.2453824179321E-02
(PID.TID 0000.0001) %MON seaice_vice_sd               =   6.3242578503184E-02
(PID.TID 0000.0001) %MON seaice_vice_del2             =   1.2655994779068E-03
(PID.TID 0000.0001) %MON seaice_area_max              =   1.0000000000000E+00
(PID.TID 0000.0001) %MON seaice_area_min              =   0.0000000000000E+00
(PID.TID 0000.0001) %MON seaice_area_mean             =   6.9250849665613E-02
(PID.TID 0000.0001) %MON seaice_area_sd               =   2.3789861847994E-01
(PID.TID 0000.0001) %MON seaice_area_del2             =   1.7790698767204E-03
(PID.TID 0000.0001) %MON seaice_heff_max              =   8.4859966391599E+00
(PID.TID 0000.0001) %MON seaice_heff_min              =   0.0000000000000E+00
(PID.TID 0000.0001) %MON seaice_heff_mean             =   2.0602842657060E-01
(PID.TID 0000.0001) %MON seaice_heff_sd               =   9.7869930756399E-01
(PID.TID 0000.0001) %MON seaice_heff_del2             =   6.2361288345013E-03
(PID.TID 0000.0001) %MON seaice_hsnow_max             =   2.0316076981804E+00
(PID.TID 0000.0001) %MON seaice_hsnow_min             =   0.0000000000000E+00
(PID.TID 0000.0001) %MON seaice_hsnow_mean            =   2.2777694021411E-02
(PID.TID 0000.0001) %MON seaice_hsnow_sd              =   1.1955534777032E-01
(PID.TID 0000.0001) %MON seaice_hsnow_del2            =   1.4648557270185E-03
(PID.TID 0000.0001) // =======================================================
(PID.TID 0000.0001) // End MONITOR SEAICE statistics
(PID.TID 0000.0001) // =======================================================
 SEAICE_LSR: Residual Initial ipass,Uice,Vice=    1  6.69856570E-03  6.89570493E-03
 SEAICE_LSR (ipass=   1) iters,dU,Resid=     8  6.59067209E-05  2.69139472E-04
 SEAICE_LSR (ipass=   1) iters,dV,Resid=     8  4.07251730E-05  1.58680599E-04
 SEAICE_LSR: Residual Initial ipass,Uice,Vice=    2  5.16792142E-03  4.53129653E-03
 SEAICE_LSR (ipass=   2) iters,dU,Resid=     6  7.44041639E-05  3.31578076E-04
 SEAICE_LSR (ipass=   2) iters,dV,Resid=     6  4.19887924E-05  2.28631948E-04
 cg2d: Sum(rhs),rhsMax =  -1.64419714794553E+01  9.03589447046227E+01
(PID.TID 0000.0001)      cg2d_init_res =   1.93327566771566E-01
(PID.TID 0000.0001)      cg2d_iters(min,last) =      -1      10
(PID.TID 0000.0001)      cg2d_last_res =   3.08816085810814E-08
(PID.TID 0000.0001) // =======================================================
(PID.TID 0000.0001) // Begin MONITOR dynamic field statistics
(PID.TID 0000.0001) // =======================================================
(PID.TID 0000.0001) %MON time_tsnumber                =                 72020
(PID.TID 0000.0001) %MON time_secondsf                =   6.4818000000000E+07
(PID.TID 0000.0001) %MON dynstat_eta_max              =   4.1278933884626E+00
(PID.TID 0000.0001) %MON dynstat_eta_min              =  -3.6436873261743E+00
(PID.TID 0000.0001) %MON dynstat_eta_mean             =   1.7263395250604E-02
(PID.TID 0000.0001) %MON dynstat_eta_sd               =   6.1857111168131E-01
(PID.TID 0000.0001) %MON dynstat_eta_del2             =   3.7742525601473E-03
(PID.TID 0000.0001) %MON dynstat_uvel_max             =   1.4769462502664E+00
(PID.TID 0000.0001) %MON dynstat_uvel_min             =  -8.0670861375846E-01
(PID.TID 0000.0001) %MON dynstat_uvel_mean            =   5.9065465386191E-06
(PID.TID 0000.0001) %MON dynstat_uvel_sd              =   1.3467144663240E-02
(PID.TID 0000.0001) %MON dynstat_uvel_del2            =   1.0832513125227E-04
(PID.TID 0000.0001) %MON dynstat_vvel_max             =   6.2941944231473E-01
(PID.TID 0000.0001) %MON dynstat_vvel_min             =  -8.4047453182376E-01
(PID.TID 0000.0001) %MON dynstat_vvel_mean            =  -4.2964965610749E-04
(PID.TID 0000.0001) %MON dynstat_vvel_sd              =   1.3699577793768E-02
(PID.TID 0000.0001) %MON dynstat_vvel_del2            =   1.0603373885606E-04
(PID.TID 0000.0001) %MON dynstat_wvel_max             =   1.0743734144187E-04
(PID.TID 0000.0001) %MON dynstat_wvel_min             =  -4.0080772939731E-04
(PID.TID 0000.0001) %MON dynstat_wvel_mean            =  -3.3933699283187E-07
(PID.TID 0000.0001) %MON dynstat_wvel_sd              =   9.1206222513471E-06
(PID.TID 0000.0001) %MON dynstat_wvel_del2            =   8.2348523459405E-08
(PID.TID 0000.0001) %MON dynstat_theta_max            =   3.0922191308228E+01
(PID.TID 0000.0001) %MON dynstat_theta_min            =  -3.0073577380165E+00
(PID.TID 0000.0001) %MON dynstat_theta_mean           =   3.9090852370711E+00
(PID.TID 0000.0001) %MON dynstat_theta_sd             =   4.5712124480469E+00
(PID.TID 0000.0001) %MON dynstat_theta_del2           =   2.6474017748928E-03
(PID.TID 0000.0001) %MON dynstat_salt_max             =   4.1362237629899E+01
(PID.TID 0000.0001) %MON dynstat_salt_min             =   1.8518569358177E+01
(PID.TID 0000.0001) %MON dynstat_salt_mean            =   3.4772076749760E+01
(PID.TID 0000.0001) %MON dynstat_salt_sd              =   5.3123837681789E-01
(PID.TID 0000.0001) %MON dynstat_salt_del2            =   8.7142930094093E-04
(PID.TID 0000.0001) %MON dynstat_sst_max              =   3.0922191308228E+01
(PID.TID 0000.0001) %MON dynstat_sst_min              =  -1.9428187283757E+00
(PID.TID 0000.0001) %MON dynstat_sst_mean             =   1.8107047974548E+01
(PID.TID 0000.0001) %MON dynstat_sst_sd               =   9.8073290718507E+00
(PID.TID 0000.0001) %MON dynstat_sst_del2             =   1.5143653488789E-02
(PID.TID 0000.0001) %MON dynstat_sss_max              =   4.1362237629899E+01
(PID.TID 0000.0001) %MON dynstat_sss_min              =   1.8751386660239E+01
(PID.TID 0000.0001) %MON dynstat_sss_mean             =   3.4633284907736E+01
(PID.TID 0000.0001) %MON dynstat_sss_sd               =   1.4644553547527E+00
(PID.TID 0000.0001) %MON dynstat_sss_del2             =   9.0721987315834E-03
(PID.TID 0000.0001) %MON forcing_qnet_max             =   5.2571362304688E+03
(PID.TID 0000.0001) %MON forcing_qnet_min             =  -2.0664802246094E+03
(PID.TID 0000.0001) %MON forcing_qnet_mean            =  -4.7917399342376E+01
(PID.TID 0000.0001) %MON forcing_qnet_sd              =   3.2306074629395E+02
(PID.TID 0000.0001) %MON forcing_qnet_del2            =   9.2598695820921E+00
(PID.TID 0000.0001) %MON forcing_qsw_max              =   0.0000000000000E+00
(PID.TID 0000.0001) %MON forcing_qsw_min              =  -1.0655679212566E+02
(PID.TID 0000.0001) %MON forcing_qsw_mean             =  -1.9567345940851E+01
(PID.TID 0000.0001) %MON forcing_qsw_sd               =   2.8113097799824E+01
(PID.TID 0000.0001) %MON forcing_qsw_del2             =   1.9436273476262E-01
(PID.TID 0000.0001) %MON forcing_empmr_max            =   1.1547319591045E-02
(PID.TID 0000.0001) %MON forcing_empmr_min            =  -1.5887647867203E-01
(PID.TID 0000.0001) %MON forcing_empmr_mean           =  -4.4722079499324E-04
(PID.TID 0000.0001) %MON forcing_empmr_sd             =   6.6151243201293E-03
(PID.TID 0000.0001) %MON forcing_empmr_del2           =   2.7024889832059E-04
(PID.TID 0000.0001) %MON forcing_fu_max               =   6.0527552214781E-01
(PID.TID 0000.0001) %MON forcing_fu_min               =  -4.1615950697116E-01
(PID.TID 0000.0001) %MON forcing_fu_mean              =  -4.2457496243467E-03
(PID.TID 0000.0001) %MON forcing_fu_sd                =   7.3417072067200E-02
(PID.TID 0000.0001) %MON forcing_fu_del2              =   7.3306269705866E-04
(PID.TID 0000.0001) %MON forcing_fv_max               =   3.0315110602672E-01
(PID.TID 0000.0001) %MON forcing_fv_min               =  -3.5626493923592E-01
(PID.TID 0000.0001) %MON forcing_fv_mean              =  -1.1146258278948E-02
(PID.TID 0000.0001) %MON forcing_fv_sd                =   7.1893393897542E-02
(PID.TID 0000.0001) %MON forcing_fv_del2              =   6.3517768020326E-04
(PID.TID 0000.0001) %MON trAdv_CFL_u_max              =   4.9211273033703E-03
(PID.TID 0000.0001) %MON trAdv_CFL_v_max              =   4.1421828979082E-03
(PID.TID 0000.0001) %MON trAdv_CFL_w_max              =   4.3724583908259E-03
(PID.TID 0000.0001) %MON advcfl_uvel_max              =   4.9252710740804E-03
(PID.TID 0000.0001) %MON advcfl_vvel_max              =   2.8719058902533E-03
(PID.TID 0000.0001) %MON advcfl_wvel_max              =   5.5261383885923E-03
(PID.TID 0000.0001) %MON advcfl_W_hf_max              =   4.3724583908259E-03
(PID.TID 0000.0001) %MON pe_b_mean                    =   5.1012884805570E-04
(PID.TID 0000.0001) %MON ke_max                       =   6.8537453503069E-01
(PID.TID 0000.0001) %MON ke_mean                      =   1.7047638336420E-04
(PID.TID 0000.0001) %MON ke_vol                       =   1.3398085857723E+18
(PID.TID 0000.0001) %MON vort_r_min                   =  -8.4995639409927E-06
(PID.TID 0000.0001) %MON vort_r_max                   =   2.9133360373931E-06
(PID.TID 0000.0001) %MON vort_a_mean                  =  -2.0549865324846E-05
(PID.TID 0000.0001) %MON vort_a_sd                    =   7.5259514948223E-05
(PID.TID 0000.0001) %MON vort_p_mean                  =  -2.4783356985165E-05
(PID.TID 0000.0001) %MON vort_p_sd                    =   1.2811915580705E-04
(PID.TID 0000.0001) %MON surfExpan_theta_mean         =  -7.4004131713472E-06
(PID.TID 0000.0001) %MON surfExpan_salt_mean          =   1.5023469368406E-06
(PID.TID 0000.0001) // =======================================================
(PID.TID 0000.0001) // End MONITOR dynamic field statistics
(PID.TID 0000.0001) // =======================================================
(PID.TID 0000.0001) // =======================================================
(PID.TID 0000.0001) // Begin MONITOR SEAICE statistics
(PID.TID 0000.0001) // =======================================================
(PID.TID 0000.0001) %MON seaice_tsnumber              =                 72020
(PID.TID 0000.0001) %MON seaice_time_sec              =   6.4818000000000E+07
(PID.TID 0000.0001) %MON seaice_uice_max              =   1.4482232685222E+00
(PID.TID 0000.0001) %MON seaice_uice_min              =  -5.6877459075228E-01
(PID.TID 0000.0001) %MON seaice_uice_mean             =  -4.3200290833117E-03
(PID.TID 0000.0001) %MON seaice_uice_sd               =   6.5912061306463E-02
(PID.TID 0000.0001) %MON seaice_uice_del2             =   1.2154945451519E-03
(PID.TID 0000.0001) %MON seaice_vice_max              =   7.4377415944745E-01
(PID.TID 0000.0001) %MON seaice_vice_min              =  -9.0434861175329E-01
(PID.TID 0000.0001) %MON seaice_vice_mean             =  -1.2602035534582E-02
(PID.TID 0000.0001) %MON seaice_vice_sd               =   6.2422711822720E-02
(PID.TID 0000.0001) %MON seaice_vice_del2             =   1.1703842814279E-03
(PID.TID 0000.0001) %MON seaice_area_max              =   1.0000000000000E+00
(PID.TID 0000.0001) %MON seaice_area_min              =   0.0000000000000E+00
(PID.TID 0000.0001) %MON seaice_area_mean             =   6.9253177932472E-02
(PID.TID 0000.0001) %MON seaice_area_sd               =   2.3790847843269E-01
(PID.TID 0000.0001) %MON seaice_area_del2             =   1.7781829178329E-03
(PID.TID 0000.0001) %MON seaice_heff_max              =   8.4882028034824E+00
(PID.TID 0000.0001) %MON seaice_heff_min              =   0.0000000000000E+00
(PID.TID 0000.0001) %MON seaice_heff_mean             =   2.0603948786584E-01
(PID.TID 0000.0001) %MON seaice_heff_sd               =   9.7878561777325E-01
(PID.TID 0000.0001) %MON seaice_heff_del2             =   6.2364192507495E-03
(PID.TID 0000.0001) %MON seaice_hsnow_max             =   2.0316355088824E+00
(PID.TID 0000.0001) %MON seaice_hsnow_min             =   0.0000000000000E+00
(PID.TID 0000.0001) %MON seaice_hsnow_mean            =   2.2775955438263E-02
(PID.TID 0000.0001) %MON seaice_hsnow_sd              =   1.1955215178829E-01
(PID.TID 0000.0001) %MON seaice_hsnow_del2            =   1.4647989870188E-03
(PID.TID 0000.0001) // =======================================================
(PID.TID 0000.0001) // End MONITOR SEAICE statistics
(PID.TID 0000.0001) // =======================================================
 Compute Stats, Diag. #    211  SIarea    vol(   0 ): 1.456E+15  Parms: SM      M1      
 Compute Stats, Diag. #    214  SIheff    vol(   0 ): 1.456E+15  Parms: SM      M1      
 Compute Stats, Diag. #    216  SIhsnow   vol(   0 ): 1.456E+15  Parms: SM      M1      
 Compute Stats, Diag. #     83  sIceLoad  vol(   0 ): 1.456E+15  Parms: SM      U1      
 Compute Stats, Diag. #    220  SIuice    vol(   0 ): 1.383E+15  Parms: UU      M1      
 Compute Stats, Diag. #    221  SIvice    vol(   0 ): 1.391E+15  Parms: VV      M1      
 Compute Stats, Diag. #    222  SItaux    vol(   0 ): 1.383E+15  Parms: UU      U1      
 Compute Stats, Diag. #    223  SItauy    vol(   0 ): 1.391E+15  Parms: VV      U1      
 SEAICE_LSR: Residual Initial ipass,Uice,Vice=    1  6.85152191E-03  6.14405992E-03
 SEAICE_LSR (ipass=   1) iters,dU,Resid=     6  9.23631135E-05  4.26679595E-04
 SEAICE_LSR (ipass=   1) iters,dV,Resid=     6  4.00351374E-05  2.36247113E-04
 SEAICE_LSR: Residual Initial ipass,Uice,Vice=    2  4.98815495E-03  4.17021935E-03
 SEAICE_LSR (ipass=   2) iters,dU,Resid=     6  7.63883342E-05  3.52984958E-04
 SEAICE_LSR (ipass=   2) iters,dV,Resid=     6  2.83792431E-05  2.00151771E-04
 cg2d: Sum(rhs),rhsMax =  -1.69146965291432E+01  8.97878126091335E+01
(PID.TID 0000.0001)      cg2d_init_res =   1.87158322053698E-01
(PID.TID 0000.0001)      cg2d_iters(min,last) =      -1      10
(PID.TID 0000.0001)      cg2d_last_res =   3.42369829782244E-08
(PID.TID 0000.0001) // =======================================================
(PID.TID 0000.0001) // Begin MONITOR dynamic field statistics
(PID.TID 0000.0001) // =======================================================
(PID.TID 0000.0001) %MON time_tsnumber                =                 72021
(PID.TID 0000.0001) %MON time_secondsf                =   6.4818900000000E+07
(PID.TID 0000.0001) %MON dynstat_eta_max              =   4.1012868368092E+00
(PID.TID 0000.0001) %MON dynstat_eta_min              =  -3.9491019282370E+00
(PID.TID 0000.0001) %MON dynstat_eta_mean             =   1.7647483119172E-02
(PID.TID 0000.0001) %MON dynstat_eta_sd               =   6.1961634044140E-01
(PID.TID 0000.0001) %MON dynstat_eta_del2             =   3.8320339248268E-03
(PID.TID 0000.0001) %MON dynstat_uvel_max             =   1.3297414928993E+00
(PID.TID 0000.0001) %MON dynstat_uvel_min             =  -7.5977006957874E-01
(PID.TID 0000.0001) %MON dynstat_uvel_mean            =   1.7157852319132E-05
(PID.TID 0000.0001) %MON dynstat_uvel_sd              =   1.3340032298086E-02
(PID.TID 0000.0001) %MON dynstat_uvel_del2            =   1.0350630809254E-04
(PID.TID 0000.0001) %MON dynstat_vvel_max             =   5.0290047785387E-01
(PID.TID 0000.0001) %MON dynstat_vvel_min             =  -8.9603065621055E-01
(PID.TID 0000.0001) %MON dynstat_vvel_mean            =  -4.2965294138472E-04
(PID.TID 0000.0001) %MON dynstat_vvel_sd              =   1.3701712602177E-02
(PID.TID 0000.0001) %MON dynstat_vvel_del2            =   1.0318590648918E-04
(PID.TID 0000.0001) %MON dynstat_wvel_max             =   1.0635836213980E-04
(PID.TID 0000.0001) %MON dynstat_wvel_min             =  -3.6937494506539E-04
(PID.TID 0000.0001) %MON dynstat_wvel_mean            =  -3.2322137864510E-07
(PID.TID 0000.0001) %MON dynstat_wvel_sd              =   9.1938075811826E-06
(PID.TID 0000.0001) %MON dynstat_wvel_del2            =   8.2363849332199E-08
(PID.TID 0000.0001) %MON dynstat_theta_max            =   3.0922158427477E+01
(PID.TID 0000.0001) %MON dynstat_theta_min            =  -3.0069716260706E+00
(PID.TID 0000.0001) %MON dynstat_theta_mean           =   3.9090899838593E+00
(PID.TID 0000.0001) %MON dynstat_theta_sd             =   4.5712305172143E+00
(PID.TID 0000.0001) %MON dynstat_theta_del2           =   2.6472480458920E-03
(PID.TID 0000.0001) %MON dynstat_salt_max             =   4.1361586936283E+01
(PID.TID 0000.0001) %MON dynstat_salt_min             =   1.8518579215617E+01
(PID.TID 0000.0001) %MON dynstat_salt_mean            =   3.4772071843006E+01
(PID.TID 0000.0001) %MON dynstat_salt_sd              =   5.3125831778573E-01
(PID.TID 0000.0001) %MON dynstat_salt_del2            =   8.7685091008351E-04
(PID.TID 0000.0001) %MON dynstat_sst_max              =   3.0922158427477E+01
(PID.TID 0000.0001) %MON dynstat_sst_min              =  -1.9425841024009E+00
(PID.TID 0000.0001) %MON dynstat_sst_mean             =   1.8107247327556E+01
(PID.TID 0000.0001) %MON dynstat_sst_sd               =   9.8075328797464E+00
(PID.TID 0000.0001) %MON dynstat_sst_del2             =   1.5140114286578E-02
(PID.TID 0000.0001) %MON dynstat_sss_max              =   4.1361586936283E+01
(PID.TID 0000.0001) %MON dynstat_sss_min              =   1.8751387284562E+01
(PID.TID 0000.0001) %MON dynstat_sss_mean             =   3.4632929627695E+01
(PID.TID 0000.0001) %MON dynstat_sss_sd               =   1.4649561326130E+00
(PID.TID 0000.0001) %MON dynstat_sss_del2             =   9.1542762245593E-03
(PID.TID 0000.0001) %MON forcing_qnet_max             =   3.2228547486312E+03
(PID.TID 0000.0001) %MON forcing_qnet_min             =  -3.1348762207031E+03
(PID.TID 0000.0001) %MON forcing_qnet_mean            =  -4.2726193170607E+01
(PID.TID 0000.0001) %MON forcing_qnet_sd              =   2.9928859063868E+02
(PID.TID 0000.0001) %MON forcing_qnet_del2            =   8.0180967894501E+00
(PID.TID 0000.0001) %MON forcing_qsw_max              =   0.0000000000000E+00
(PID.TID 0000.0001) %MON forcing_qsw_min              =  -1.0896217567143E+02
(PID.TID 0000.0001) %MON forcing_qsw_mean             =  -1.8935125441464E+01
(PID.TID 0000.0001) %MON forcing_qsw_sd               =   2.7420214850402E+01
(PID.TID 0000.0001) %MON forcing_qsw_del2             =   2.0231676400053E-01
(PID.TID 0000.0001) %MON forcing_empmr_max            =   1.1107039637864E-02
(PID.TID 0000.0001) %MON forcing_empmr_min            =  -1.5447802841663E-01
(PID.TID 0000.0001) %MON forcing_empmr_mean           =  -4.4170104885326E-04
(PID.TID 0000.0001) %MON forcing_empmr_sd             =   6.5104607588398E-03
(PID.TID 0000.0001) %MON forcing_empmr_del2           =   2.6553832066683E-04
(PID.TID 0000.0001) %MON forcing_fu_max               =   5.8926173860731E-01
(PID.TID 0000.0001) %MON forcing_fu_min               =  -4.1203635096233E-01
(PID.TID 0000.0001) %MON forcing_fu_mean              =  -4.2000526378444E-03
(PID.TID 0000.0001) %MON forcing_fu_sd                =   7.2919057225573E-02
(PID.TID 0000.0001) %MON forcing_fu_del2              =   7.2436701798757E-04
(PID.TID 0000.0001) %MON forcing_fv_max               =   3.0707069331315E-01
(PID.TID 0000.0001) %MON forcing_fv_min               =  -3.5257118886137E-01
(PID.TID 0000.0001) %MON forcing_fv_mean              =  -1.1140153770825E-02
(PID.TID 0000.0001) %MON forcing_fv_sd                =   7.1362091694409E-02
(PID.TID 0000.0001) %MON forcing_fv_del2              =   6.2942996172002E-04
(PID.TID 0000.0001) %MON trAdv_CFL_u_max              =   4.4405994227830E-03
(PID.TID 0000.0001) %MON trAdv_CFL_v_max              =   3.2116291598276E-03
(PID.TID 0000.0001) %MON trAdv_CFL_w_max              =   4.0698231311160E-03
(PID.TID 0000.0001) %MON advcfl_uvel_max              =   4.4343775609980E-03
(PID.TID 0000.0001) %MON advcfl_vvel_max              =   3.0617414591191E-03
(PID.TID 0000.0001) %MON advcfl_wvel_max              =   5.3731488144916E-03
(PID.TID 0000.0001) %MON advcfl_W_hf_max              =   4.0698231311160E-03
(PID.TID 0000.0001) %MON pe_b_mean                    =   5.1187074815685E-04
(PID.TID 0000.0001) %MON ke_max                       =   6.2718276628173E-01
(PID.TID 0000.0001) %MON ke_mean                      =   1.6893826122048E-04
(PID.TID 0000.0001) %MON ke_vol                       =   1.3398087272833E+18
(PID.TID 0000.0001) %MON vort_r_min                   =  -8.1686077244203E-06
(PID.TID 0000.0001) %MON vort_r_max                   =   2.9413350226211E-06
(PID.TID 0000.0001) %MON vort_a_mean                  =  -2.0549865324846E-05
(PID.TID 0000.0001) %MON vort_a_sd                    =   7.5259514337111E-05
(PID.TID 0000.0001) %MON vort_p_mean                  =  -2.4783354090769E-05
(PID.TID 0000.0001) %MON vort_p_sd                    =   1.2811915210979E-04
(PID.TID 0000.0001) %MON surfExpan_theta_mean         =  -7.3544806132864E-06
(PID.TID 0000.0001) %MON surfExpan_salt_mean          =   1.4690236578059E-06
(PID.TID 0000.0001) // =======================================================
(PID.TID 0000.0001) // End MONITOR dynamic field statistics
(PID.TID 0000.0001) // =======================================================
(PID.TID 0000.0001) // =======================================================
(PID.TID 0000.0001) // Begin MONITOR SEAICE statistics
(PID.TID 0000.0001) // =======================================================
(PID.TID 0000.0001) %MON seaice_tsnumber              =                 72021
(PID.TID 0000.0001) %MON seaice_time_sec              =   6.4818900000000E+07
(PID.TID 0000.0001) %MON seaice_uice_max              =   1.3110447877439E+00
(PID.TID 0000.0001) %MON seaice_uice_min              =  -5.2814007290267E-01
(PID.TID 0000.0001) %MON seaice_uice_mean             =  -4.4245215620352E-03
(PID.TID 0000.0001) %MON seaice_uice_sd               =   6.4456521447827E-02
(PID.TID 0000.0001) %MON seaice_uice_del2             =   1.1498709630971E-03
(PID.TID 0000.0001) %MON seaice_vice_max              =   6.2239909508084E-01
(PID.TID 0000.0001) %MON seaice_vice_min              =  -8.2146271481399E-01
(PID.TID 0000.0001) %MON seaice_vice_mean             =  -1.2757094841622E-02
(PID.TID 0000.0001) %MON seaice_vice_sd               =   6.1810942060119E-02
(PID.TID 0000.0001) %MON seaice_vice_del2             =   1.0964916907910E-03
(PID.TID 0000.0001) %MON seaice_area_max              =   1.0000000000000E+00
(PID.TID 0000.0001) %MON seaice_area_min              =   0.0000000000000E+00
(PID.TID 0000.0001) %MON seaice_area_mean             =   6.9256450364604E-02
(PID.TID 0000.0001) %MON seaice_area_sd               =   2.3792249271954E-01
(PID.TID 0000.0001) %MON seaice_area_del2             =   1.7773478355112E-03
(PID.TID 0000.0001) %MON seaice_heff_max              =   8.4903432796044E+00
(PID.TID 0000.0001) %MON seaice_heff_min              =   0.0000000000000E+00
(PID.TID 0000.0001) %MON seaice_heff_mean             =   2.0604982318745E-01
(PID.TID 0000.0001) %MON seaice_heff_sd               =   9.7886816672470E-01
(PID.TID 0000.0001) %MON seaice_heff_del2             =   6.2366853952468E-03
(PID.TID 0000.0001) %MON seaice_hsnow_max             =   2.0316475017786E+00
(PID.TID 0000.0001) %MON seaice_hsnow_min             =   0.0000000000000E+00
(PID.TID 0000.0001) %MON seaice_hsnow_mean            =   2.2774239617470E-02
(PID.TID 0000.0001) %MON seaice_hsnow_sd              =   1.1954894984392E-01
(PID.TID 0000.0001) %MON seaice_hsnow_del2            =   1.4647391739811E-03
(PID.TID 0000.0001) // =======================================================
(PID.TID 0000.0001) // End MONITOR SEAICE statistics
(PID.TID 0000.0001) // =======================================================
 Computing Diagnostic #    211  SIarea       Counter:       1   Parms: SM      M1      
 Computing Diagnostic #    214  SIheff       Counter:       1   Parms: SM      M1      
 Computing Diagnostic #    216  SIhsnow      Counter:       1   Parms: SM      M1      
 Computing Diagnostic #     83  sIceLoad     Counter:       1   Parms: SM      U1      
 Computing Diagnostic #    220  SIuice       Counter:       1   Parms: UU      M1      
           Vector  Mate for  SIuice       Diagnostic #    221  SIvice   exists 
 Computing Diagnostic #    221  SIvice       Counter:       1   Parms: VV      M1      
           Vector  Mate for  SIvice       Diagnostic #    220  SIuice   exists 
 Computing Diagnostic #    222  SItaux       Counter:       1   Parms: UU      U1      
           Vector  Mate for  SItaux       Diagnostic #    223  SItauy   exists 
 Computing Diagnostic #    223  SItauy       Counter:       1   Parms: VV      U1      
           Vector  Mate for  SItauy       Diagnostic #    222  SItaux   exists 
 Computing Diagnostic #      1  SDIAG1       Counter:       1   Parms: SM      L1      
 Computing Diagnostic #    282  SIareaN      Counter:       1   Parms: SM      MX      
 Computing Diagnostic #    281  SIheffN      Counter:       1   Parms: SM      MX      
 Computing Diagnostic #    283  SIhsnowN     Counter:       1   Parms: SM      MX      
 SEAICE_LSR: Residual Initial ipass,Uice,Vice=    1  6.88968010E-03  5.75580438E-03
 SEAICE_LSR (ipass=   1) iters,dU,Resid=     6  8.97681275E-05  4.21435838E-04
 SEAICE_LSR (ipass=   1) iters,dV,Resid=     6  2.93460010E-05  2.01419168E-04
 SEAICE_LSR: Residual Initial ipass,Uice,Vice=    2  4.84174893E-03  3.99204469E-03
 SEAICE_LSR (ipass=   2) iters,dU,Resid=     6  7.35787721E-05  3.47224981E-04
 SEAICE_LSR (ipass=   2) iters,dV,Resid=     6  3.13677596E-05  1.72303888E-04
 cg2d: Sum(rhs),rhsMax =  -1.75728419632340E+01  8.82770738493456E+01
(PID.TID 0000.0001)      cg2d_init_res =   1.84841865010417E-01
(PID.TID 0000.0001)      cg2d_iters(min,last) =      -1       9
(PID.TID 0000.0001)      cg2d_last_res =   9.02050933444041E-08
(PID.TID 0000.0001) // =======================================================
(PID.TID 0000.0001) // Begin MONITOR dynamic field statistics
(PID.TID 0000.0001) // =======================================================
(PID.TID 0000.0001) %MON time_tsnumber                =                 72022
(PID.TID 0000.0001) %MON time_secondsf                =   6.4819800000000E+07
(PID.TID 0000.0001) %MON dynstat_eta_max              =   4.0320837181653E+00
(PID.TID 0000.0001) %MON dynstat_eta_min              =  -4.1760392843178E+00
(PID.TID 0000.0001) %MON dynstat_eta_mean             =   1.8025657112920E-02
(PID.TID 0000.0001) %MON dynstat_eta_sd               =   6.2050016923198E-01
(PID.TID 0000.0001) %MON dynstat_eta_del2             =   3.8519464554818E-03
(PID.TID 0000.0001) %MON dynstat_uvel_max             =   1.1691755597609E+00
(PID.TID 0000.0001) %MON dynstat_uvel_min             =  -7.0978522570362E-01
(PID.TID 0000.0001) %MON dynstat_uvel_mean            =   2.4173562266761E-05
(PID.TID 0000.0001) %MON dynstat_uvel_sd              =   1.3221900391132E-02
(PID.TID 0000.0001) %MON dynstat_uvel_del2            =   9.9100872312326E-05
(PID.TID 0000.0001) %MON dynstat_vvel_max             =   3.7590183507174E-01
(PID.TID 0000.0001) %MON dynstat_vvel_min             =  -9.3636945555510E-01
(PID.TID 0000.0001) %MON dynstat_vvel_mean            =  -4.3057874942278E-04
(PID.TID 0000.0001) %MON dynstat_vvel_sd              =   1.3721766571281E-02
(PID.TID 0000.0001) %MON dynstat_vvel_del2            =   1.0227783156867E-04
(PID.TID 0000.0001) %MON dynstat_wvel_max             =   1.0654289453200E-04
(PID.TID 0000.0001) %MON dynstat_wvel_min             =  -4.0942520132401E-04
(PID.TID 0000.0001) %MON dynstat_wvel_mean            =  -3.0569265913707E-07
(PID.TID 0000.0001) %MON dynstat_wvel_sd              =   9.1975234939025E-06
(PID.TID 0000.0001) %MON dynstat_wvel_del2            =   8.1975680484479E-08
(PID.TID 0000.0001) %MON dynstat_theta_max            =   3.0922143284230E+01
(PID.TID 0000.0001) %MON dynstat_theta_min            =  -3.0066522417080E+00
(PID.TID 0000.0001) %MON dynstat_theta_mean           =   3.9090946363546E+00
(PID.TID 0000.0001) %MON dynstat_theta_sd             =   4.5712482846917E+00
(PID.TID 0000.0001) %MON dynstat_theta_del2           =   2.6470778745970E-03
(PID.TID 0000.0001) %MON dynstat_salt_max             =   4.1360984199800E+01
(PID.TID 0000.0001) %MON dynstat_salt_min             =   1.8518589082737E+01
(PID.TID 0000.0001) %MON dynstat_salt_mean            =   3.4772067144799E+01
(PID.TID 0000.0001) %MON dynstat_salt_sd              =   5.3127831783093E-01
(PID.TID 0000.0001) %MON dynstat_salt_del2            =   8.8232292607690E-04
(PID.TID 0000.0001) %MON dynstat_sst_max              =   3.0922143284230E+01
(PID.TID 0000.0001) %MON dynstat_sst_min              =  -1.9423590596150E+00
(PID.TID 0000.0001) %MON dynstat_sst_mean             =   1.8107442469483E+01
(PID.TID 0000.0001) %MON dynstat_sst_sd               =   9.8077317485536E+00
(PID.TID 0000.0001) %MON dynstat_sst_del2             =   1.5136125695803E-02
(PID.TID 0000.0001) %MON dynstat_sss_max              =   4.1360984199800E+01
(PID.TID 0000.0001) %MON dynstat_sss_min              =   1.8751387879040E+01
(PID.TID 0000.0001) %MON dynstat_sss_mean             =   3.4632588932437E+01
(PID.TID 0000.0001) %MON dynstat_sss_sd               =   1.4654584088827E+00
(PID.TID 0000.0001) %MON dynstat_sss_del2             =   9.2368989300102E-03
(PID.TID 0000.0001) %MON forcing_qnet_max             =   3.1771327979698E+03
(PID.TID 0000.0001) %MON forcing_qnet_min             =  -1.0399027343750E+04
(PID.TID 0000.0001) %MON forcing_qnet_mean            =  -4.1706186103823E+01
(PID.TID 0000.0001) %MON forcing_qnet_sd              =   3.3531585279526E+02
(PID.TID 0000.0001) %MON forcing_qnet_del2            =   1.0251444879994E+01
(PID.TID 0000.0001) %MON forcing_qsw_max              =   0.0000000000000E+00
(PID.TID 0000.0001) %MON forcing_qsw_min              =  -1.0946522048332E+02
(PID.TID 0000.0001) %MON forcing_qsw_mean             =  -1.8705385902718E+01
(PID.TID 0000.0001) %MON forcing_qsw_sd               =   2.7115053045758E+01
(PID.TID 0000.0001) %MON forcing_qsw_del2             =   2.0422263090706E-01
(PID.TID 0000.0001) %MON forcing_empmr_max            =   1.0535672307014E-02
(PID.TID 0000.0001) %MON forcing_empmr_min            =  -1.5117448568344E-01
(PID.TID 0000.0001) %MON forcing_empmr_mean           =  -4.3490009281034E-04
(PID.TID 0000.0001) %MON forcing_empmr_sd             =   6.4103994727923E-03
(PID.TID 0000.0001) %MON forcing_empmr_del2           =   2.6096005455768E-04
(PID.TID 0000.0001) %MON forcing_fu_max               =   5.7621555409372E-01
(PID.TID 0000.0001) %MON forcing_fu_min               =  -4.0798640558192E-01
(PID.TID 0000.0001) %MON forcing_fu_mean              =  -4.1844636483142E-03
(PID.TID 0000.0001) %MON forcing_fu_sd                =   7.2435170267823E-02
(PID.TID 0000.0001) %MON forcing_fu_del2              =   7.1708671318495E-04
(PID.TID 0000.0001) %MON forcing_fv_max               =   3.0990348587637E-01
(PID.TID 0000.0001) %MON forcing_fv_min               =  -3.4398738522600E-01
(PID.TID 0000.0001) %MON forcing_fv_mean              =  -1.1145305539959E-02
(PID.TID 0000.0001) %MON forcing_fv_sd                =   7.0798589431969E-02
(PID.TID 0000.0001) %MON forcing_fv_del2              =   6.2333021158761E-04
(PID.TID 0000.0001) %MON trAdv_CFL_u_max              =   3.9124984164325E-03
(PID.TID 0000.0001) %MON trAdv_CFL_v_max              =   3.0522833021579E-03
(PID.TID 0000.0001) %MON trAdv_CFL_w_max              =   3.7653018253362E-03
(PID.TID 0000.0001) %MON advcfl_uvel_max              =   3.8989276447762E-03
(PID.TID 0000.0001) %MON advcfl_vvel_max              =   3.1995793483791E-03
(PID.TID 0000.0001) %MON advcfl_wvel_max              =   5.2582429802936E-03
(PID.TID 0000.0001) %MON advcfl_W_hf_max              =   3.7653018253362E-03
(PID.TID 0000.0001) %MON pe_b_mean                    =   5.1334880176450E-04
(PID.TID 0000.0001) %MON ke_max                       =   5.6974703230747E-01
(PID.TID 0000.0001) %MON ke_mean                      =   1.6775245112975E-04
(PID.TID 0000.0001) %MON ke_vol                       =   1.3398088670478E+18
(PID.TID 0000.0001) %MON vort_r_min                   =  -7.7307857148468E-06
(PID.TID 0000.0001) %MON vort_r_max                   =   2.9494933456099E-06
(PID.TID 0000.0001) %MON vort_a_mean                  =  -2.0549865324846E-05
(PID.TID 0000.0001) %MON vort_a_sd                    =   7.5259513410654E-05
(PID.TID 0000.0001) %MON vort_p_mean                  =  -2.4783351288190E-05
(PID.TID 0000.0001) %MON vort_p_sd                    =   1.2811914326797E-04
(PID.TID 0000.0001) %MON surfExpan_theta_mean         =  -7.2832571688429E-06
(PID.TID 0000.0001) %MON surfExpan_salt_mean          =   1.4343075872448E-06
(PID.TID 0000.0001) // =======================================================
(PID.TID 0000.0001) // End MONITOR dynamic field statistics
(PID.TID 0000.0001) // =======================================================
(PID.TID 0000.0001) // =======================================================
(PID.TID 0000.0001) // Begin MONITOR SEAICE statistics
(PID.TID 0000.0001) // =======================================================
(PID.TID 0000.0001) %MON seaice_tsnumber              =                 72022
(PID.TID 0000.0001) %MON seaice_time_sec              =   6.4819800000000E+07
(PID.TID 0000.0001) %MON seaice_uice_max              =   1.1602470990827E+00
(PID.TID 0000.0001) %MON seaice_uice_min              =  -4.8391438703504E-01
(PID.TID 0000.0001) %MON seaice_uice_mean             =  -4.5310566335380E-03
(PID.TID 0000.0001) %MON seaice_uice_sd               =   6.3063183107377E-02
(PID.TID 0000.0001) %MON seaice_uice_del2             =   1.0908065350246E-03
(PID.TID 0000.0001) %MON seaice_vice_max              =   4.9863616323704E-01
(PID.TID 0000.0001) %MON seaice_vice_min              =  -8.7847788965236E-01
(PID.TID 0000.0001) %MON seaice_vice_mean             =  -1.2908882040160E-02
(PID.TID 0000.0001) %MON seaice_vice_sd               =   6.1425956063480E-02
(PID.TID 0000.0001) %MON seaice_vice_del2             =   1.0483666384508E-03
(PID.TID 0000.0001) %MON seaice_area_max              =   1.0000000000000E+00
(PID.TID 0000.0001) %MON seaice_area_min              =   0.0000000000000E+00
(PID.TID 0000.0001) %MON seaice_area_mean             =   6.9255731670640E-02
(PID.TID 0000.0001) %MON seaice_area_sd               =   2.3792125962888E-01
(PID.TID 0000.0001) %MON seaice_area_del2             =   1.7767798920691E-03
(PID.TID 0000.0001) %MON seaice_heff_max              =   8.4924215578044E+00
(PID.TID 0000.0001) %MON seaice_heff_min              =   0.0000000000000E+00
(PID.TID 0000.0001) %MON seaice_heff_mean             =   2.0605933322266E-01
(PID.TID 0000.0001) %MON seaice_heff_sd               =   9.7894714701277E-01
(PID.TID 0000.0001) %MON seaice_heff_del2             =   6.2369400216414E-03
(PID.TID 0000.0001) %MON seaice_hsnow_max             =   2.0316632698826E+00
(PID.TID 0000.0001) %MON seaice_hsnow_min             =   0.0000000000000E+00
(PID.TID 0000.0001) %MON seaice_hsnow_mean            =   2.2772440118389E-02
(PID.TID 0000.0001) %MON seaice_hsnow_sd              =   1.1954567492934E-01
(PID.TID 0000.0001) %MON seaice_hsnow_del2            =   1.4646792484909E-03
(PID.TID 0000.0001) // =======================================================
(PID.TID 0000.0001) // End MONITOR SEAICE statistics
(PID.TID 0000.0001) // =======================================================
 SEAICE_LSR: Residual Initial ipass,Uice,Vice=    1  7.02319297E-03  5.48420895E-03
 SEAICE_LSR (ipass=   1) iters,dU,Resid=     6  8.52282384E-05  4.06817965E-04
 SEAICE_LSR (ipass=   1) iters,dV,Resid=     6  9.46323389E-05  1.72175398E-04
 SEAICE_LSR: Residual Initial ipass,Uice,Vice=    2  4.87885458E-03  3.66759349E-03
 SEAICE_LSR (ipass=   2) iters,dU,Resid=     6  6.95636144E-05  3.36254301E-04
 SEAICE_LSR (ipass=   2) iters,dV,Resid=     6  6.66972073E-05  1.46782400E-04
 cg2d: Sum(rhs),rhsMax =  -1.84411927596802E+01  8.58669780946309E+01
(PID.TID 0000.0001)      cg2d_init_res =   1.84586234831732E-01
(PID.TID 0000.0001)      cg2d_iters(min,last) =      -1      10
(PID.TID 0000.0001)      cg2d_last_res =   3.82254436132655E-08
(PID.TID 0000.0001) // =======================================================
(PID.TID 0000.0001) // Begin MONITOR dynamic field statistics
(PID.TID 0000.0001) // =======================================================
(PID.TID 0000.0001) %MON time_tsnumber                =                 72023
(PID.TID 0000.0001) %MON time_secondsf                =   6.4820700000000E+07
(PID.TID 0000.0001) %MON dynstat_eta_max              =   3.9220889057309E+00
(PID.TID 0000.0001) %MON dynstat_eta_min              =  -4.3234699861727E+00
(PID.TID 0000.0001) %MON dynstat_eta_mean             =   1.8399938004537E-02
(PID.TID 0000.0001) %MON dynstat_eta_sd               =   6.2122055311221E-01
(PID.TID 0000.0001) %MON dynstat_eta_del2             =   3.8369187281416E-03
(PID.TID 0000.0001) %MON dynstat_uvel_max             =   9.9777584411542E-01
(PID.TID 0000.0001) %MON dynstat_uvel_min             =  -6.5760249225278E-01
(PID.TID 0000.0001) %MON dynstat_uvel_mean            =   2.6426397355989E-05
(PID.TID 0000.0001) %MON dynstat_uvel_sd              =   1.3114317534019E-02
(PID.TID 0000.0001) %MON dynstat_uvel_del2            =   9.5188236051219E-05
(PID.TID 0000.0001) %MON dynstat_vvel_max             =   3.1406724603707E-01
(PID.TID 0000.0001) %MON dynstat_vvel_min             =  -9.6146329234068E-01
(PID.TID 0000.0001) %MON dynstat_vvel_mean            =  -4.3253608213108E-04
(PID.TID 0000.0001) %MON dynstat_vvel_sd              =   1.3755671855250E-02
(PID.TID 0000.0001) %MON dynstat_vvel_del2            =   1.0304220055940E-04
(PID.TID 0000.0001) %MON dynstat_wvel_max             =   1.0822549193466E-04
(PID.TID 0000.0001) %MON dynstat_wvel_min             =  -4.3461380433266E-04
(PID.TID 0000.0001) %MON dynstat_wvel_mean            =  -2.8846909739293E-07
(PID.TID 0000.0001) %MON dynstat_wvel_sd              =   9.1350479911457E-06
(PID.TID 0000.0001) %MON dynstat_wvel_del2            =   8.1207054019820E-08
(PID.TID 0000.0001) %MON dynstat_theta_max            =   3.0922146125540E+01
(PID.TID 0000.0001) %MON dynstat_theta_min            =  -3.0064032324152E+00
(PID.TID 0000.0001) %MON dynstat_theta_mean           =   3.9090988592810E+00
(PID.TID 0000.0001) %MON dynstat_theta_sd             =   4.5712641306867E+00
(PID.TID 0000.0001) %MON dynstat_theta_del2           =   2.6469021637788E-03
(PID.TID 0000.0001) %MON dynstat_salt_max             =   4.1360428568744E+01
(PID.TID 0000.0001) %MON dynstat_salt_min             =   1.8518598967680E+01
(PID.TID 0000.0001) %MON dynstat_salt_mean            =   3.4772062480134E+01
(PID.TID 0000.0001) %MON dynstat_salt_sd              =   5.3129841171461E-01
(PID.TID 0000.0001) %MON dynstat_salt_del2            =   8.8781121675474E-04
(PID.TID 0000.0001) %MON dynstat_sst_max              =   3.0922146125540E+01
(PID.TID 0000.0001) %MON dynstat_sst_min              =  -1.9421445986523E+00
(PID.TID 0000.0001) %MON dynstat_sst_mean             =   1.8107610819792E+01
(PID.TID 0000.0001) %MON dynstat_sst_sd               =   9.8079094167479E+00
(PID.TID 0000.0001) %MON dynstat_sst_del2             =   1.5132053154996E-02
(PID.TID 0000.0001) %MON dynstat_sss_max              =   4.1360428568744E+01
(PID.TID 0000.0001) %MON dynstat_sss_min              =   1.8751388529676E+01
(PID.TID 0000.0001) %MON dynstat_sss_mean             =   3.4632251470350E+01
(PID.TID 0000.0001) %MON dynstat_sss_sd               =   1.4659645361311E+00
(PID.TID 0000.0001) %MON dynstat_sss_del2             =   9.3195561819304E-03
(PID.TID 0000.0001) %MON forcing_qnet_max             =   5.1868802741869E+03
(PID.TID 0000.0001) %MON forcing_qnet_min             =  -4.3888081054688E+03
(PID.TID 0000.0001) %MON forcing_qnet_mean            =  -3.4581716788489E+01
(PID.TID 0000.0001) %MON forcing_qnet_sd              =   2.9674461560221E+02
(PID.TID 0000.0001) %MON forcing_qnet_del2            =   8.5880555516473E+00
(PID.TID 0000.0001) %MON forcing_qsw_max              =   0.0000000000000E+00
(PID.TID 0000.0001) %MON forcing_qsw_min              =  -1.0976478759672E+02
(PID.TID 0000.0001) %MON forcing_qsw_mean             =  -1.8434412905186E+01
(PID.TID 0000.0001) %MON forcing_qsw_sd               =   2.6772853847634E+01
(PID.TID 0000.0001) %MON forcing_qsw_del2             =   2.0553363624984E-01
(PID.TID 0000.0001) %MON forcing_empmr_max            =   9.9244089797139E-03
(PID.TID 0000.0001) %MON forcing_empmr_min            =  -1.4720499515533E-01
(PID.TID 0000.0001) %MON forcing_empmr_mean           =  -4.3042302535924E-04
(PID.TID 0000.0001) %MON forcing_empmr_sd             =   6.3078481743466E-03
(PID.TID 0000.0001) %MON forcing_empmr_del2           =   2.5626470652211E-04
(PID.TID 0000.0001) %MON forcing_fu_max               =   5.6382459027639E-01
(PID.TID 0000.0001) %MON forcing_fu_min               =  -4.0460087793690E-01
(PID.TID 0000.0001) %MON forcing_fu_mean              =  -4.1586132380046E-03
(PID.TID 0000.0001) %MON forcing_fu_sd                =   7.2008871747789E-02
(PID.TID 0000.0001) %MON forcing_fu_del2              =   7.1019342038416E-04
(PID.TID 0000.0001) %MON forcing_fv_max               =   3.1279753121711E-01
(PID.TID 0000.0001) %MON forcing_fv_min               =  -3.3541430018564E-01
(PID.TID 0000.0001) %MON forcing_fv_mean              =  -1.1163014073155E-02
(PID.TID 0000.0001) %MON forcing_fv_sd                =   7.0278268276059E-02
(PID.TID 0000.0001) %MON forcing_fv_del2              =   6.1793217515465E-04
(PID.TID 0000.0001) %MON trAdv_CFL_u_max              =   3.3450042735765E-03
(PID.TID 0000.0001) %MON trAdv_CFL_v_max              =   3.1384603235221E-03
(PID.TID 0000.0001) %MON trAdv_CFL_w_max              =   3.4600857477212E-03
(PID.TID 0000.0001) %MON advcfl_uvel_max              =   3.3273495921407E-03
(PID.TID 0000.0001) %MON advcfl_vvel_max              =   3.2853251204933E-03
(PID.TID 0000.0001) %MON advcfl_wvel_max              =   5.1201737445334E-03
(PID.TID 0000.0001) %MON advcfl_W_hf_max              =   3.4600857477212E-03
(PID.TID 0000.0001) %MON pe_b_mean                    =   5.1455856540076E-04
(PID.TID 0000.0001) %MON ke_max                       =   5.1500702604891E-01
(PID.TID 0000.0001) %MON ke_mean                      =   1.6688395592519E-04
(PID.TID 0000.0001) %MON ke_vol                       =   1.3398090046603E+18
(PID.TID 0000.0001) %MON vort_r_min                   =  -7.1953060515969E-06
(PID.TID 0000.0001) %MON vort_r_max                   =   2.9379434506545E-06
(PID.TID 0000.0001) %MON vort_a_mean                  =  -2.0549865324846E-05
(PID.TID 0000.0001) %MON vort_a_sd                    =   7.5259512108998E-05
(PID.TID 0000.0001) %MON vort_p_mean                  =  -2.4783348578258E-05
(PID.TID 0000.0001) %MON vort_p_sd                    =   1.2811912966915E-04
(PID.TID 0000.0001) %MON surfExpan_theta_mean         =  -7.2689027706530E-06
(PID.TID 0000.0001) %MON surfExpan_salt_mean          =   1.3994870334553E-06
(PID.TID 0000.0001) // =======================================================
(PID.TID 0000.0001) // End MONITOR dynamic field statistics
(PID.TID 0000.0001) // =======================================================
(PID.TID 0000.0001) // =======================================================
(PID.TID 0000.0001) // Begin MONITOR SEAICE statistics
(PID.TID 0000.0001) // =======================================================
(PID.TID 0000.0001) %MON seaice_tsnumber              =                 72023
(PID.TID 0000.0001) %MON seaice_time_sec              =   6.4820700000000E+07
(PID.TID 0000.0001) %MON seaice_uice_max              =   9.9747185918708E-01
(PID.TID 0000.0001) %MON seaice_uice_min              =  -4.7157099573861E-01
(PID.TID 0000.0001) %MON seaice_uice_mean             =  -4.6668583406456E-03
(PID.TID 0000.0001) %MON seaice_uice_sd               =   6.1756847227039E-02
(PID.TID 0000.0001) %MON seaice_uice_del2             =   1.0382802687425E-03
(PID.TID 0000.0001) %MON seaice_vice_max              =   3.7494613917278E-01
(PID.TID 0000.0001) %MON seaice_vice_min              =  -9.2017853506299E-01
(PID.TID 0000.0001) %MON seaice_vice_mean             =  -1.3071469453831E-02
(PID.TID 0000.0001) %MON seaice_vice_sd               =   6.1273035865142E-02
(PID.TID 0000.0001) %MON seaice_vice_del2             =   1.0281043981508E-03
(PID.TID 0000.0001) %MON seaice_area_max              =   1.0000000000000E+00
(PID.TID 0000.0001) %MON seaice_area_min              =   0.0000000000000E+00
(PID.TID 0000.0001) %MON seaice_area_mean             =   6.9255401331139E-02
(PID.TID 0000.0001) %MON seaice_area_sd               =   2.3792169605728E-01
(PID.TID 0000.0001) %MON seaice_area_del2             =   1.7763180546524E-03
(PID.TID 0000.0001) %MON seaice_heff_max              =   8.4944391932655E+00
(PID.TID 0000.0001) %MON seaice_heff_min              =   0.0000000000000E+00
(PID.TID 0000.0001) %MON seaice_heff_mean             =   2.0606820943113E-01
(PID.TID 0000.0001) %MON seaice_heff_sd               =   9.7902274945651E-01
(PID.TID 0000.0001) %MON seaice_heff_del2             =   6.2371884521255E-03
(PID.TID 0000.0001) %MON seaice_hsnow_max             =   2.0316837741127E+00
(PID.TID 0000.0001) %MON seaice_hsnow_min             =   0.0000000000000E+00
(PID.TID 0000.0001) %MON seaice_hsnow_mean            =   2.2770695565488E-02
(PID.TID 0000.0001) %MON seaice_hsnow_sd              =   1.1954247789488E-01
(PID.TID 0000.0001) %MON seaice_hsnow_del2            =   1.4646216649218E-03
(PID.TID 0000.0001) // =======================================================
(PID.TID 0000.0001) // End MONITOR SEAICE statistics
(PID.TID 0000.0001) // =======================================================
 SEAICE_LSR: Residual Initial ipass,Uice,Vice=    1  7.08452109E-03  5.12266091E-03
 SEAICE_LSR (ipass=   1) iters,dU,Resid=     8  5.55384861E-05  2.60895032E-04
 SEAICE_LSR (ipass=   1) iters,dV,Resid=     8  5.82722549E-05  7.68787970E-05
 SEAICE_LSR: Residual Initial ipass,Uice,Vice=    2  4.86933990E-03  3.24402387E-03
 SEAICE_LSR (ipass=   2) iters,dU,Resid=     6  6.15250174E-05  3.05993815E-04
 SEAICE_LSR (ipass=   2) iters,dV,Resid=     6  7.86357593E-05  1.20572895E-04
 cg2d: Sum(rhs),rhsMax =  -1.95516146169935E+01  8.26132761584559E+01
(PID.TID 0000.0001)      cg2d_init_res =   1.86075429792780E-01
(PID.TID 0000.0001)      cg2d_iters(min,last) =      -1      10
(PID.TID 0000.0001)      cg2d_last_res =   5.73708219955431E-08
(PID.TID 0000.0001) // =======================================================
(PID.TID 0000.0001) // Begin MONITOR dynamic field statistics
(PID.TID 0000.0001) // =======================================================
(PID.TID 0000.0001) %MON time_tsnumber                =                 72024
(PID.TID 0000.0001) %MON time_secondsf                =   6.4821600000000E+07
(PID.TID 0000.0001) %MON dynstat_eta_max              =   3.7738111124731E+00
(PID.TID 0000.0001) %MON dynstat_eta_min              =  -4.3915221982099E+00
(PID.TID 0000.0001) %MON dynstat_eta_mean             =   1.8768676404844E-02
(PID.TID 0000.0001) %MON dynstat_eta_sd               =   6.2176958722119E-01
(PID.TID 0000.0001) %MON dynstat_eta_del2             =   3.7891985787877E-03
(PID.TID 0000.0001) %MON dynstat_uvel_max             =   8.1849507497757E-01
(PID.TID 0000.0001) %MON dynstat_uvel_min             =  -6.0405420733098E-01
(PID.TID 0000.0001) %MON dynstat_uvel_mean            =   2.3528266664840E-05
(PID.TID 0000.0001) %MON dynstat_uvel_sd              =   1.3019465104627E-02
(PID.TID 0000.0001) %MON dynstat_uvel_del2            =   9.1840421277268E-05
(PID.TID 0000.0001) %MON dynstat_vvel_max             =   3.2263328648798E-01
(PID.TID 0000.0001) %MON dynstat_vvel_min             =  -9.7136429936533E-01
(PID.TID 0000.0001) %MON dynstat_vvel_mean            =  -4.3544921986991E-04
(PID.TID 0000.0001) %MON dynstat_vvel_sd              =   1.3799387218036E-02
(PID.TID 0000.0001) %MON dynstat_vvel_del2            =   1.0509060350310E-04
(PID.TID 0000.0001) %MON dynstat_wvel_max             =   1.2449840067936E-04
(PID.TID 0000.0001) %MON dynstat_wvel_min             =  -4.4538557117509E-04
(PID.TID 0000.0001) %MON dynstat_wvel_mean            =  -2.6936150848384E-07
(PID.TID 0000.0001) %MON dynstat_wvel_sd              =   9.0241753739382E-06
(PID.TID 0000.0001) %MON dynstat_wvel_del2            =   8.0185489265004E-08
(PID.TID 0000.0001) %MON dynstat_theta_max            =   3.0922164813591E+01
(PID.TID 0000.0001) %MON dynstat_theta_min            =  -3.0062209326728E+00
(PID.TID 0000.0001) %MON dynstat_theta_mean           =   3.9091028967888E+00
(PID.TID 0000.0001) %MON dynstat_theta_sd             =   4.5712795075278E+00
(PID.TID 0000.0001) %MON dynstat_theta_del2           =   2.6467452890144E-03
(PID.TID 0000.0001) %MON dynstat_salt_max             =   4.1359917651444E+01
(PID.TID 0000.0001) %MON dynstat_salt_min             =   1.8518608878425E+01
(PID.TID 0000.0001) %MON dynstat_salt_mean            =   3.4772057967498E+01
(PID.TID 0000.0001) %MON dynstat_salt_sd              =   5.3131859123246E-01
(PID.TID 0000.0001) %MON dynstat_salt_del2            =   8.9332392658077E-04
(PID.TID 0000.0001) %MON dynstat_sst_max              =   3.0922164813591E+01
(PID.TID 0000.0001) %MON dynstat_sst_min              =  -1.9419373957354E+00
(PID.TID 0000.0001) %MON dynstat_sst_mean             =   1.8107767402608E+01
(PID.TID 0000.0001) %MON dynstat_sst_sd               =   9.8080868995039E+00
(PID.TID 0000.0001) %MON dynstat_sst_del2             =   1.5128493435115E-02
(PID.TID 0000.0001) %MON dynstat_sss_max              =   4.1359917651444E+01
(PID.TID 0000.0001) %MON dynstat_sss_min              =   1.8751389224636E+01
(PID.TID 0000.0001) %MON dynstat_sss_mean             =   3.4631924379993E+01
(PID.TID 0000.0001) %MON dynstat_sss_sd               =   1.4664724702547E+00
(PID.TID 0000.0001) %MON dynstat_sss_del2             =   9.4023711623303E-03
(PID.TID 0000.0001) %MON forcing_qnet_max             =   3.0904444332191E+03
(PID.TID 0000.0001) %MON forcing_qnet_min             =  -2.4515266113281E+03
(PID.TID 0000.0001) %MON forcing_qnet_mean            =  -3.2001916365300E+01
(PID.TID 0000.0001) %MON forcing_qnet_sd              =   2.6956778369582E+02
(PID.TID 0000.0001) %MON forcing_qnet_del2            =   6.8581321628722E+00
(PID.TID 0000.0001) %MON forcing_qsw_max              =   0.0000000000000E+00
(PID.TID 0000.0001) %MON forcing_qsw_min              =  -1.1023179402264E+02
(PID.TID 0000.0001) %MON forcing_qsw_mean             =  -1.8121557880737E+01
(PID.TID 0000.0001) %MON forcing_qsw_sd               =   2.6399173797446E+01
(PID.TID 0000.0001) %MON forcing_qsw_del2             =   2.0622566779113E-01
(PID.TID 0000.0001) %MON forcing_empmr_max            =   9.2551065608859E-03
(PID.TID 0000.0001) %MON forcing_empmr_min            =  -1.4392301440239E-01
(PID.TID 0000.0001) %MON forcing_empmr_mean           =  -4.2404916035283E-04
(PID.TID 0000.0001) %MON forcing_empmr_sd             =   6.2122001207878E-03
(PID.TID 0000.0001) %MON forcing_empmr_del2           =   2.5189599364392E-04
(PID.TID 0000.0001) %MON forcing_fu_max               =   5.4271898115019E-01
(PID.TID 0000.0001) %MON forcing_fu_min               =  -3.9948443681747E-01
(PID.TID 0000.0001) %MON forcing_fu_mean              =  -4.1233499378726E-03
(PID.TID 0000.0001) %MON forcing_fu_sd                =   7.1522172630351E-02
(PID.TID 0000.0001) %MON forcing_fu_del2              =   7.0228994725401E-04
(PID.TID 0000.0001) %MON forcing_fv_max               =   3.1515538879045E-01
(PID.TID 0000.0001) %MON forcing_fv_min               =  -3.2780389985255E-01
(PID.TID 0000.0001) %MON forcing_fv_mean              =  -1.1230208385024E-02
(PID.TID 0000.0001) %MON forcing_fv_sd                =   6.9739345511559E-02
(PID.TID 0000.0001) %MON forcing_fv_del2              =   6.1254201602652E-04
(PID.TID 0000.0001) %MON trAdv_CFL_u_max              =   2.7480150347054E-03
(PID.TID 0000.0001) %MON trAdv_CFL_v_max              =   3.1763703861062E-03
(PID.TID 0000.0001) %MON trAdv_CFL_w_max              =   3.1566086674664E-03
(PID.TID 0000.0001) %MON advcfl_uvel_max              =   2.7294900652864E-03
(PID.TID 0000.0001) %MON advcfl_vvel_max              =   3.3191569135065E-03
(PID.TID 0000.0001) %MON advcfl_wvel_max              =   5.0060178922570E-03
(PID.TID 0000.0001) %MON advcfl_W_hf_max              =   3.1566086674664E-03
(PID.TID 0000.0001) %MON pe_b_mean                    =   5.1548590821222E-04
(PID.TID 0000.0001) %MON ke_max                       =   4.6475844549056E-01
(PID.TID 0000.0001) %MON ke_mean                      =   1.6630522959897E-04
(PID.TID 0000.0001) %MON ke_vol                       =   1.3398091408562E+18
(PID.TID 0000.0001) %MON vort_r_min                   =  -6.5733400942088E-06
(PID.TID 0000.0001) %MON vort_r_max                   =   2.9070837650038E-06
(PID.TID 0000.0001) %MON vort_a_mean                  =  -2.0549865324846E-05
(PID.TID 0000.0001) %MON vort_a_sd                    =   7.5259510432367E-05
(PID.TID 0000.0001) %MON vort_p_mean                  =  -2.4783345940623E-05
(PID.TID 0000.0001) %MON vort_p_sd                    =   1.2811911242426E-04
(PID.TID 0000.0001) %MON surfExpan_theta_mean         =  -7.2117942010302E-06
(PID.TID 0000.0001) %MON surfExpan_salt_mean          =   1.3623797322594E-06
(PID.TID 0000.0001) // =======================================================
(PID.TID 0000.0001) // End MONITOR dynamic field statistics
(PID.TID 0000.0001) // =======================================================
(PID.TID 0000.0001) // =======================================================
(PID.TID 0000.0001) // Begin MONITOR SEAICE statistics
(PID.TID 0000.0001) // =======================================================
(PID.TID 0000.0001) %MON seaice_tsnumber              =                 72024
(PID.TID 0000.0001) %MON seaice_time_sec              =   6.4821600000000E+07
(PID.TID 0000.0001) %MON seaice_uice_max              =   8.2548507684322E-01
(PID.TID 0000.0001) %MON seaice_uice_min              =  -5.1624605110703E-01
(PID.TID 0000.0001) %MON seaice_uice_mean             =  -4.8153399383675E-03
(PID.TID 0000.0001) %MON seaice_uice_sd               =   6.0581839424837E-02
(PID.TID 0000.0001) %MON seaice_uice_del2             =   9.9359175864275E-04
(PID.TID 0000.0001) %MON seaice_vice_max              =   3.1406724595885E-01
(PID.TID 0000.0001) %MON seaice_vice_min              =  -9.4655515138095E-01
(PID.TID 0000.0001) %MON seaice_vice_mean             =  -1.3239333319507E-02
(PID.TID 0000.0001) %MON seaice_vice_sd               =   6.1332096287616E-02
(PID.TID 0000.0001) %MON seaice_vice_del2             =   1.0338304009817E-03
(PID.TID 0000.0001) %MON seaice_area_max              =   1.0000000000000E+00
(PID.TID 0000.0001) %MON seaice_area_min              =   0.0000000000000E+00
(PID.TID 0000.0001) %MON seaice_area_mean             =   6.9252542426705E-02
(PID.TID 0000.0001) %MON seaice_area_sd               =   2.3791241300109E-01
(PID.TID 0000.0001) %MON seaice_area_del2             =   1.7757677938579E-03
(PID.TID 0000.0001) %MON seaice_heff_max              =   8.4963986438055E+00
(PID.TID 0000.0001) %MON seaice_heff_min              =   0.0000000000000E+00
(PID.TID 0000.0001) %MON seaice_heff_mean             =   2.0607681377505E-01
(PID.TID 0000.0001) %MON seaice_heff_sd               =   9.7909536536505E-01
(PID.TID 0000.0001) %MON seaice_heff_del2             =   6.2374401525923E-03
(PID.TID 0000.0001) %MON seaice_hsnow_max             =   2.0317051679782E+00
(PID.TID 0000.0001) %MON seaice_hsnow_min             =   0.0000000000000E+00
(PID.TID 0000.0001) %MON seaice_hsnow_mean            =   2.2768987710235E-02
(PID.TID 0000.0001) %MON seaice_hsnow_sd              =   1.1953927555357E-01
(PID.TID 0000.0001) %MON seaice_hsnow_del2            =   1.4645612971361E-03
(PID.TID 0000.0001) // =======================================================
(PID.TID 0000.0001) // End MONITOR SEAICE statistics
(PID.TID 0000.0001) // =======================================================
 Compute Stats, Diag. #    211  SIarea    vol(   0 ): 1.456E+15  Parms: SM      M1      
 Compute Stats, Diag. #    214  SIheff    vol(   0 ): 1.456E+15  Parms: SM      M1      
 Compute Stats, Diag. #    216  SIhsnow   vol(   0 ): 1.456E+15  Parms: SM      M1      
 Compute Stats, Diag. #     83  sIceLoad  vol(   0 ): 1.456E+15  Parms: SM      U1      
 Compute Stats, Diag. #    220  SIuice    vol(   0 ): 1.383E+15  Parms: UU      M1      
 Compute Stats, Diag. #    221  SIvice    vol(   0 ): 1.391E+15  Parms: VV      M1      
 Compute Stats, Diag. #    222  SItaux    vol(   0 ): 1.383E+15  Parms: UU      U1      
 Compute Stats, Diag. #    223  SItauy    vol(   0 ): 1.391E+15  Parms: VV      U1      
 SEAICE_LSR: Residual Initial ipass,Uice,Vice=    1  6.93246498E-03  4.78803649E-03
 SEAICE_LSR (ipass=   1) iters,dU,Resid=     8  5.02785614E-05  2.43622393E-04
 SEAICE_LSR (ipass=   1) iters,dV,Resid=     8  6.07258266E-05  5.76603133E-05
 SEAICE_LSR: Residual Initial ipass,Uice,Vice=    2  4.67849911E-03  3.05165799E-03
 SEAICE_LSR (ipass=   2) iters,dU,Resid=     6  5.57380928E-05  2.83957952E-04
 SEAICE_LSR (ipass=   2) iters,dV,Resid=     6  7.95191856E-05  9.08130508E-05
 cg2d: Sum(rhs),rhsMax =  -2.09523054994172E+01  7.85852973783233E+01
(PID.TID 0000.0001)      cg2d_init_res =   1.90224570568931E-01
(PID.TID 0000.0001)      cg2d_iters(min,last) =      -1      10
(PID.TID 0000.0001)      cg2d_last_res =   6.59103881106165E-08
(PID.TID 0000.0001) // =======================================================
(PID.TID 0000.0001) // Begin MONITOR dynamic field statistics
(PID.TID 0000.0001) // =======================================================
(PID.TID 0000.0001) %MON time_tsnumber                =                 72025
(PID.TID 0000.0001) %MON time_secondsf                =   6.4822500000000E+07
(PID.TID 0000.0001) %MON dynstat_eta_max              =   3.5903766171847E+00
(PID.TID 0000.0001) %MON dynstat_eta_min              =  -4.3815034058422E+00
(PID.TID 0000.0001) %MON dynstat_eta_mean             =   1.9132613217651E-02
(PID.TID 0000.0001) %MON dynstat_eta_sd               =   6.2213642427499E-01
(PID.TID 0000.0001) %MON dynstat_eta_del2             =   3.7106723627272E-03
(PID.TID 0000.0001) %MON dynstat_uvel_max             =   6.3461733505449E-01
(PID.TID 0000.0001) %MON dynstat_uvel_min             =  -6.2509195179608E-01
(PID.TID 0000.0001) %MON dynstat_uvel_mean            =   1.5261221031602E-05
(PID.TID 0000.0001) %MON dynstat_uvel_sd              =   1.2940110664453E-02
(PID.TID 0000.0001) %MON dynstat_uvel_del2            =   8.9116176730046E-05
(PID.TID 0000.0001) %MON dynstat_vvel_max             =   3.2972929923506E-01
(PID.TID 0000.0001) %MON dynstat_vvel_min             =  -9.6622718183487E-01
(PID.TID 0000.0001) %MON dynstat_vvel_mean            =  -4.3901825462618E-04
(PID.TID 0000.0001) %MON dynstat_vvel_sd              =   1.3849111495636E-02
(PID.TID 0000.0001) %MON dynstat_vvel_del2            =   1.0799762175819E-04
(PID.TID 0000.0001) %MON dynstat_wvel_max             =   1.3876523421439E-04
(PID.TID 0000.0001) %MON dynstat_wvel_min             =  -4.4405036010539E-04
(PID.TID 0000.0001) %MON dynstat_wvel_mean            =  -2.4904030338991E-07
(PID.TID 0000.0001) %MON dynstat_wvel_sd              =   8.8904276739105E-06
(PID.TID 0000.0001) %MON dynstat_wvel_del2            =   7.9061300390085E-08
(PID.TID 0000.0001) %MON dynstat_theta_max            =   3.0922212125039E+01
(PID.TID 0000.0001) %MON dynstat_theta_min            =  -3.0060960374684E+00
(PID.TID 0000.0001) %MON dynstat_theta_mean           =   3.9091067155607E+00
(PID.TID 0000.0001) %MON dynstat_theta_sd             =   4.5712942705427E+00
(PID.TID 0000.0001) %MON dynstat_theta_del2           =   2.6465974738893E-03
(PID.TID 0000.0001) %MON dynstat_salt_max             =   4.1359448804245E+01
(PID.TID 0000.0001) %MON dynstat_salt_min             =   1.8518618822785E+01
(PID.TID 0000.0001) %MON dynstat_salt_mean            =   3.4772053594272E+01
(PID.TID 0000.0001) %MON dynstat_salt_sd              =   5.3133883072537E-01
(PID.TID 0000.0001) %MON dynstat_salt_del2            =   8.9884964348498E-04
(PID.TID 0000.0001) %MON dynstat_sst_max              =   3.0922212125039E+01
(PID.TID 0000.0001) %MON dynstat_sst_min              =  -1.9417373805905E+00
(PID.TID 0000.0001) %MON dynstat_sst_mean             =   1.8107904006504E+01
(PID.TID 0000.0001) %MON dynstat_sst_sd               =   9.8082794066219E+00
(PID.TID 0000.0001) %MON dynstat_sst_del2             =   1.5125180598237E-02
(PID.TID 0000.0001) %MON dynstat_sss_max              =   4.1359448804245E+01
(PID.TID 0000.0001) %MON dynstat_sss_min              =   1.8751389863687E+01
(PID.TID 0000.0001) %MON dynstat_sss_mean             =   3.4631607262776E+01
(PID.TID 0000.0001) %MON dynstat_sss_sd               =   1.4669827530443E+00
(PID.TID 0000.0001) %MON dynstat_sss_del2             =   9.4851749390611E-03
(PID.TID 0000.0001) %MON forcing_qnet_max             =   3.0464509228662E+03
(PID.TID 0000.0001) %MON forcing_qnet_min             =  -2.4532402343750E+03
(PID.TID 0000.0001) %MON forcing_qnet_mean            =  -2.8693721498396E+01
(PID.TID 0000.0001) %MON forcing_qnet_sd              =   2.6342262468651E+02
(PID.TID 0000.0001) %MON forcing_qnet_del2            =   6.6178519852462E+00
(PID.TID 0000.0001) %MON forcing_qsw_max              =   0.0000000000000E+00
(PID.TID 0000.0001) %MON forcing_qsw_min              =  -1.0867626931282E+02
(PID.TID 0000.0001) %MON forcing_qsw_mean             =  -1.7694751514840E+01
(PID.TID 0000.0001) %MON forcing_qsw_sd               =   2.5945142852231E+01
(PID.TID 0000.0001) %MON forcing_qsw_del2             =   2.1016896759080E-01
(PID.TID 0000.0001) %MON forcing_empmr_max            =   8.6518526077271E-03
(PID.TID 0000.0001) %MON forcing_empmr_min            =  -1.4053565263748E-01
(PID.TID 0000.0001) %MON forcing_empmr_mean           =  -4.1852733472808E-04
(PID.TID 0000.0001) %MON forcing_empmr_sd             =   6.1192999328065E-03
(PID.TID 0000.0001) %MON forcing_empmr_del2           =   2.4771201317064E-04
(PID.TID 0000.0001) %MON forcing_fu_max               =   5.2197337785799E-01
(PID.TID 0000.0001) %MON forcing_fu_min               =  -3.9675006467841E-01
(PID.TID 0000.0001) %MON forcing_fu_mean              =  -4.1463180141543E-03
(PID.TID 0000.0001) %MON forcing_fu_sd                =   7.0987298110936E-02
(PID.TID 0000.0001) %MON forcing_fu_del2              =   6.9564316086071E-04
(PID.TID 0000.0001) %MON forcing_fv_max               =   3.1852315391297E-01
(PID.TID 0000.0001) %MON forcing_fv_min               =  -3.2102224734520E-01
(PID.TID 0000.0001) %MON forcing_fv_mean              =  -1.1268153763175E-02
(PID.TID 0000.0001) %MON forcing_fv_sd                =   6.9294092848679E-02
(PID.TID 0000.0001) %MON forcing_fv_del2              =   6.0791704774389E-04
(PID.TID 0000.0001) %MON trAdv_CFL_u_max              =   2.1368530777276E-03
(PID.TID 0000.0001) %MON trAdv_CFL_v_max              =   3.2384744222564E-03
(PID.TID 0000.0001) %MON trAdv_CFL_w_max              =   2.8583868537673E-03
(PID.TID 0000.0001) %MON advcfl_uvel_max              =   2.1163007136448E-03
(PID.TID 0000.0001) %MON advcfl_vvel_max              =   3.3016033559197E-03
(PID.TID 0000.0001) %MON advcfl_wvel_max              =   4.8881966134776E-03
(PID.TID 0000.0001) %MON advcfl_W_hf_max              =   2.8583868537673E-03
(PID.TID 0000.0001) %MON pe_b_mean                    =   5.1611211945052E-04
(PID.TID 0000.0001) %MON ke_max                       =   4.2052156024100E-01
(PID.TID 0000.0001) %MON ke_mean                      =   1.6599810234451E-04
(PID.TID 0000.0001) %MON ke_vol                       =   1.3398092750352E+18
(PID.TID 0000.0001) %MON vort_r_min                   =  -5.8777488821863E-06
(PID.TID 0000.0001) %MON vort_r_max                   =   2.8575952644219E-06
(PID.TID 0000.0001) %MON vort_a_mean                  =  -2.0549865324846E-05
(PID.TID 0000.0001) %MON vort_a_sd                    =   7.5259508446386E-05
(PID.TID 0000.0001) %MON vort_p_mean                  =  -2.4783343384113E-05
(PID.TID 0000.0001) %MON vort_p_sd                    =   1.2811909315122E-04
(PID.TID 0000.0001) %MON surfExpan_theta_mean         =  -7.1671206666254E-06
(PID.TID 0000.0001) %MON surfExpan_salt_mean          =   1.3269128087637E-06
(PID.TID 0000.0001) // =======================================================
(PID.TID 0000.0001) // End MONITOR dynamic field statistics
(PID.TID 0000.0001) // =======================================================
(PID.TID 0000.0001) // =======================================================
(PID.TID 0000.0001) // Begin MONITOR SEAICE statistics
(PID.TID 0000.0001) // =======================================================
(PID.TID 0000.0001) %MON seaice_tsnumber              =                 72025
(PID.TID 0000.0001) %MON seaice_time_sec              =   6.4822500000000E+07
(PID.TID 0000.0001) %MON seaice_uice_max              =   6.4903345856314E-01
(PID.TID 0000.0001) %MON seaice_uice_min              =  -5.6166923745270E-01
(PID.TID 0000.0001) %MON seaice_uice_mean             =  -4.9765296546558E-03
(PID.TID 0000.0001) %MON seaice_uice_sd               =   5.9576945473415E-02
(PID.TID 0000.0001) %MON seaice_uice_del2             =   9.5729240867029E-04
(PID.TID 0000.0001) %MON seaice_vice_max              =   3.2263328642106E-01
(PID.TID 0000.0001) %MON seaice_vice_min              =  -9.5768431795413E-01
(PID.TID 0000.0001) %MON seaice_vice_mean             =  -1.3411650301741E-02
(PID.TID 0000.0001) %MON seaice_vice_sd               =   6.1568111664788E-02
(PID.TID 0000.0001) %MON seaice_vice_del2             =   1.0609543849452E-03
(PID.TID 0000.0001) %MON seaice_area_max              =   1.0000000000000E+00
(PID.TID 0000.0001) %MON seaice_area_min              =   0.0000000000000E+00
(PID.TID 0000.0001) %MON seaice_area_mean             =   6.9248842086600E-02
(PID.TID 0000.0001) %MON seaice_area_sd               =   2.3789988200449E-01
(PID.TID 0000.0001) %MON seaice_area_del2             =   1.7751690843611E-03
(PID.TID 0000.0001) %MON seaice_heff_max              =   8.4983014736174E+00
(PID.TID 0000.0001) %MON seaice_heff_min              =   0.0000000000000E+00
(PID.TID 0000.0001) %MON seaice_heff_mean             =   2.0608473593973E-01
(PID.TID 0000.0001) %MON seaice_heff_sd               =   9.7916473478664E-01
(PID.TID 0000.0001) %MON seaice_heff_del2             =   6.2376850717346E-03
(PID.TID 0000.0001) %MON seaice_hsnow_max             =   2.0317251590479E+00
(PID.TID 0000.0001) %MON seaice_hsnow_min             =   0.0000000000000E+00
(PID.TID 0000.0001) %MON seaice_hsnow_mean            =   2.2767383398982E-02
(PID.TID 0000.0001) %MON seaice_hsnow_sd              =   1.1953610954622E-01
(PID.TID 0000.0001) %MON seaice_hsnow_del2            =   1.4644999726826E-03
(PID.TID 0000.0001) // =======================================================
(PID.TID 0000.0001) // End MONITOR SEAICE statistics
(PID.TID 0000.0001) // =======================================================
 Computing Diagnostic #    211  SIarea       Counter:       1   Parms: SM      M1      
 Computing Diagnostic #    214  SIheff       Counter:       1   Parms: SM      M1      
 Computing Diagnostic #    216  SIhsnow      Counter:       1   Parms: SM      M1      
 Computing Diagnostic #     83  sIceLoad     Counter:       1   Parms: SM      U1      
 Computing Diagnostic #    220  SIuice       Counter:       1   Parms: UU      M1      
           Vector  Mate for  SIuice       Diagnostic #    221  SIvice   exists 
 Computing Diagnostic #    221  SIvice       Counter:       1   Parms: VV      M1      
           Vector  Mate for  SIvice       Diagnostic #    220  SIuice   exists 
 Computing Diagnostic #    222  SItaux       Counter:       1   Parms: UU      U1      
           Vector  Mate for  SItaux       Diagnostic #    223  SItauy   exists 
 Computing Diagnostic #    223  SItauy       Counter:       1   Parms: VV      U1      
           Vector  Mate for  SItauy       Diagnostic #    222  SItaux   exists 
 Computing Diagnostic #      1  SDIAG1       Counter:       1   Parms: SM      L1      
 Computing Diagnostic #    282  SIareaN      Counter:       1   Parms: SM      MX      
 Computing Diagnostic #    281  SIheffN      Counter:       1   Parms: SM      MX      
 Computing Diagnostic #    283  SIhsnowN     Counter:       1   Parms: SM      MX      
 SEAICE_LSR: Residual Initial ipass,Uice,Vice=    1  6.20346004E-03  4.74286961E-03
 SEAICE_LSR (ipass=   1) iters,dU,Resid=     8  4.41822854E-05  2.18206518E-04
 SEAICE_LSR (ipass=   1) iters,dV,Resid=     8  5.40650093E-05  3.88425432E-05
 SEAICE_LSR: Residual Initial ipass,Uice,Vice=    2  3.98481316E-03  3.13045222E-03
 SEAICE_LSR (ipass=   2) iters,dU,Resid=     6  4.91453677E-05  2.53866293E-04
 SEAICE_LSR (ipass=   2) iters,dV,Resid=     6  6.82919684E-05  6.42989516E-05
 cg2d: Sum(rhs),rhsMax =  -2.19988672556084E+01  7.62537046500540E+01
(PID.TID 0000.0001)      cg2d_init_res =   1.92586017693074E-01
(PID.TID 0000.0001)      cg2d_iters(min,last) =      -1      10
(PID.TID 0000.0001)      cg2d_last_res =   6.79410382608936E-08
(PID.TID 0000.0001) // =======================================================
(PID.TID 0000.0001) // Begin MONITOR dynamic field statistics
(PID.TID 0000.0001) // =======================================================
(PID.TID 0000.0001) %MON time_tsnumber                =                 72026
(PID.TID 0000.0001) %MON time_secondsf                =   6.4823400000000E+07
(PID.TID 0000.0001) %MON dynstat_eta_max              =   3.3754364249379E+00
(PID.TID 0000.0001) %MON dynstat_eta_min              =  -4.2957006530755E+00
(PID.TID 0000.0001) %MON dynstat_eta_mean             =   1.9492270981462E-02
(PID.TID 0000.0001) %MON dynstat_eta_sd               =   6.2231346352700E-01
(PID.TID 0000.0001) %MON dynstat_eta_del2             =   3.6035482049449E-03
(PID.TID 0000.0001) %MON dynstat_uvel_max             =   4.5576966420889E-01
(PID.TID 0000.0001) %MON dynstat_uvel_min             =  -6.7420291651602E-01
(PID.TID 0000.0001) %MON dynstat_uvel_mean            =   1.6571530987641E-06
(PID.TID 0000.0001) %MON dynstat_uvel_sd              =   1.2878710843428E-02
(PID.TID 0000.0001) %MON dynstat_uvel_del2            =   8.7043398828038E-05
(PID.TID 0000.0001) %MON dynstat_vvel_max             =   3.3534925275772E-01
(PID.TID 0000.0001) %MON dynstat_vvel_min             =  -9.5265320734562E-01
(PID.TID 0000.0001) %MON dynstat_vvel_mean            =  -4.4280637986192E-04
(PID.TID 0000.0001) %MON dynstat_vvel_sd              =   1.3901056907993E-02
(PID.TID 0000.0001) %MON dynstat_vvel_del2            =   1.1136442038891E-04
(PID.TID 0000.0001) %MON dynstat_wvel_max             =   1.5097598025387E-04
(PID.TID 0000.0001) %MON dynstat_wvel_min             =  -4.3318225122506E-04
(PID.TID 0000.0001) %MON dynstat_wvel_mean            =  -2.2780897172877E-07
(PID.TID 0000.0001) %MON dynstat_wvel_sd              =   8.7599059098942E-06
(PID.TID 0000.0001) %MON dynstat_wvel_del2            =   7.7968462920796E-08
(PID.TID 0000.0001) %MON dynstat_theta_max            =   3.0922275927508E+01
(PID.TID 0000.0001) %MON dynstat_theta_min            =  -3.0060156778255E+00
(PID.TID 0000.0001) %MON dynstat_theta_mean           =   3.9091103046593E+00
(PID.TID 0000.0001) %MON dynstat_theta_sd             =   4.5713082121408E+00
(PID.TID 0000.0001) %MON dynstat_theta_del2           =   2.6464474864148E-03
(PID.TID 0000.0001) %MON dynstat_salt_max             =   4.1359018034892E+01
(PID.TID 0000.0001) %MON dynstat_salt_min             =   1.8518628806525E+01
(PID.TID 0000.0001) %MON dynstat_salt_mean            =   3.4772049310175E+01
(PID.TID 0000.0001) %MON dynstat_salt_sd              =   5.3135902985026E-01
(PID.TID 0000.0001) %MON dynstat_salt_del2            =   9.0437807669983E-04
(PID.TID 0000.0001) %MON dynstat_sst_max              =   3.0922275927508E+01
(PID.TID 0000.0001) %MON dynstat_sst_min              =  -1.9415457083881E+00
(PID.TID 0000.0001) %MON dynstat_sst_mean             =   1.8108033452867E+01
(PID.TID 0000.0001) %MON dynstat_sst_sd               =   9.8084525212598E+00
(PID.TID 0000.0001) %MON dynstat_sst_del2             =   1.5121858001048E-02
(PID.TID 0000.0001) %MON dynstat_sss_max              =   4.1359018034892E+01
(PID.TID 0000.0001) %MON dynstat_sss_min              =   1.8751390462963E+01
(PID.TID 0000.0001) %MON dynstat_sss_mean             =   3.4631297099310E+01
(PID.TID 0000.0001) %MON dynstat_sss_sd               =   1.4674921641719E+00
(PID.TID 0000.0001) %MON dynstat_sss_del2             =   9.5678129753762E-03
(PID.TID 0000.0001) %MON forcing_qnet_max             =   3.0045454668910E+03
(PID.TID 0000.0001) %MON forcing_qnet_min             =  -2.4024863281250E+03
(PID.TID 0000.0001) %MON forcing_qnet_mean            =  -2.5132988273027E+01
(PID.TID 0000.0001) %MON forcing_qnet_sd              =   2.6060443964672E+02
(PID.TID 0000.0001) %MON forcing_qnet_del2            =   6.4050642410936E+00
(PID.TID 0000.0001) %MON forcing_qsw_max              =   0.0000000000000E+00
(PID.TID 0000.0001) %MON forcing_qsw_min              =  -1.0823358751825E+02
(PID.TID 0000.0001) %MON forcing_qsw_mean             =  -1.7498636863780E+01
(PID.TID 0000.0001) %MON forcing_qsw_sd               =   2.5703502105181E+01
(PID.TID 0000.0001) %MON forcing_qsw_del2             =   2.1021394955127E-01
(PID.TID 0000.0001) %MON forcing_empmr_max            =   8.5626496002078E-03
(PID.TID 0000.0001) %MON forcing_empmr_min            =  -1.3721708953381E-01
(PID.TID 0000.0001) %MON forcing_empmr_mean           =  -4.1360642838262E-04
(PID.TID 0000.0001) %MON forcing_empmr_sd             =   6.0262111969238E-03
(PID.TID 0000.0001) %MON forcing_empmr_del2           =   2.4349963096315E-04
(PID.TID 0000.0001) %MON forcing_fu_max               =   5.0762290324960E-01
(PID.TID 0000.0001) %MON forcing_fu_min               =  -3.8924153898405E-01
(PID.TID 0000.0001) %MON forcing_fu_mean              =  -4.1248079427781E-03
(PID.TID 0000.0001) %MON forcing_fu_sd                =   7.0347298306259E-02
(PID.TID 0000.0001) %MON forcing_fu_del2              =   6.8791807457094E-04
(PID.TID 0000.0001) %MON forcing_fv_max               =   3.2101575629048E-01
(PID.TID 0000.0001) %MON forcing_fv_min               =  -3.1398403805814E-01
(PID.TID 0000.0001) %MON forcing_fv_mean              =  -1.1296550626623E-02
(PID.TID 0000.0001) %MON forcing_fv_sd                =   6.8875277650025E-02
(PID.TID 0000.0001) %MON forcing_fv_del2              =   6.0297534464456E-04
(PID.TID 0000.0001) %MON trAdv_CFL_u_max              =   1.9825459534946E-03
(PID.TID 0000.0001) %MON trAdv_CFL_v_max              =   3.7115108672152E-03
(PID.TID 0000.0001) %MON trAdv_CFL_w_max              =   2.5696875644594E-03
(PID.TID 0000.0001) %MON advcfl_uvel_max              =   1.9843390017382E-03
(PID.TID 0000.0001) %MON advcfl_vvel_max              =   3.2337046220662E-03
(PID.TID 0000.0001) %MON advcfl_wvel_max              =   4.7727683316106E-03
(PID.TID 0000.0001) %MON advcfl_W_hf_max              =   2.5696875644594E-03
(PID.TID 0000.0001) %MON pe_b_mean                    =   5.1642407544027E-04
(PID.TID 0000.0001) %MON ke_max                       =   3.8341989769403E-01
(PID.TID 0000.0001) %MON ke_mean                      =   1.6594015842508E-04
(PID.TID 0000.0001) %MON ke_vol                       =   1.3398094074670E+18
(PID.TID 0000.0001) %MON vort_r_min                   =  -5.3376016805282E-06
(PID.TID 0000.0001) %MON vort_r_max                   =   2.7904470879989E-06
(PID.TID 0000.0001) %MON vort_a_mean                  =  -2.0549865324846E-05
(PID.TID 0000.0001) %MON vort_a_sd                    =   7.5259506268645E-05
(PID.TID 0000.0001) %MON vort_p_mean                  =  -2.4783340901445E-05
(PID.TID 0000.0001) %MON vort_p_sd                    =   1.2811907368999E-04
(PID.TID 0000.0001) %MON surfExpan_theta_mean         =  -7.1377089971347E-06
(PID.TID 0000.0001) %MON surfExpan_salt_mean          =   1.2915332992955E-06
(PID.TID 0000.0001) // =======================================================
(PID.TID 0000.0001) // End MONITOR dynamic field statistics
(PID.TID 0000.0001) // =======================================================
(PID.TID 0000.0001) // =======================================================
(PID.TID 0000.0001) // Begin MONITOR SEAICE statistics
(PID.TID 0000.0001) // =======================================================
(PID.TID 0000.0001) %MON seaice_tsnumber              =                 72026
(PID.TID 0000.0001) %MON seaice_time_sec              =   6.4823400000000E+07
(PID.TID 0000.0001) %MON seaice_uice_max              =   4.9242779310620E-01
(PID.TID 0000.0001) %MON seaice_uice_min              =  -6.0730294309438E-01
(PID.TID 0000.0001) %MON seaice_uice_mean             =  -5.1427080936954E-03
(PID.TID 0000.0001) %MON seaice_uice_sd               =   5.8765513593779E-02
(PID.TID 0000.0001) %MON seaice_uice_del2             =   9.2975585124776E-04
(PID.TID 0000.0001) %MON seaice_vice_max              =   3.2972929917963E-01
(PID.TID 0000.0001) %MON seaice_vice_min              =  -9.5368243402953E-01
(PID.TID 0000.0001) %MON seaice_vice_mean             =  -1.3580880250899E-02
(PID.TID 0000.0001) %MON seaice_vice_sd               =   6.1910360854513E-02
(PID.TID 0000.0001) %MON seaice_vice_del2             =   1.1005145846382E-03
(PID.TID 0000.0001) %MON seaice_area_max              =   1.0000000000000E+00
(PID.TID 0000.0001) %MON seaice_area_min              =   0.0000000000000E+00
(PID.TID 0000.0001) %MON seaice_area_mean             =   6.9245062810812E-02
(PID.TID 0000.0001) %MON seaice_area_sd               =   2.3788704212834E-01
(PID.TID 0000.0001) %MON seaice_area_del2             =   1.7745183703625E-03
(PID.TID 0000.0001) %MON seaice_heff_max              =   8.5001493447440E+00
(PID.TID 0000.0001) %MON seaice_heff_min              =   0.0000000000000E+00
(PID.TID 0000.0001) %MON seaice_heff_mean             =   2.0609199285599E-01
(PID.TID 0000.0001) %MON seaice_heff_sd               =   9.7923092483373E-01
(PID.TID 0000.0001) %MON seaice_heff_del2             =   6.2379216404040E-03
(PID.TID 0000.0001) %MON seaice_hsnow_max             =   2.0317425540232E+00
(PID.TID 0000.0001) %MON seaice_hsnow_min             =   0.0000000000000E+00
(PID.TID 0000.0001) %MON seaice_hsnow_mean            =   2.2765782635791E-02
(PID.TID 0000.0001) %MON seaice_hsnow_sd              =   1.1953294000828E-01
(PID.TID 0000.0001) %MON seaice_hsnow_del2            =   1.4644349166514E-03
(PID.TID 0000.0001) // =======================================================
(PID.TID 0000.0001) // End MONITOR SEAICE statistics
(PID.TID 0000.0001) // =======================================================
 SEAICE_LSR: Residual Initial ipass,Uice,Vice=    1  5.57965333E-03  4.52390166E-03
 SEAICE_LSR (ipass=   1) iters,dU,Resid=     8  3.79492939E-05  1.90252380E-04
 SEAICE_LSR (ipass=   1) iters,dV,Resid=     8  3.89961587E-05  2.54737424E-05
 SEAICE_LSR: Residual Initial ipass,Uice,Vice=    2  3.67546364E-03  2.87184393E-03
 SEAICE_LSR (ipass=   2) iters,dU,Resid=     6  4.39661640E-05  2.23232992E-04
 SEAICE_LSR (ipass=   2) iters,dV,Resid=     6  5.05052486E-05  4.58500661E-05
 cg2d: Sum(rhs),rhsMax =  -2.32496460561676E+01  7.34653152218156E+01
(PID.TID 0000.0001)      cg2d_init_res =   1.99542271493393E-01
(PID.TID 0000.0001)      cg2d_iters(min,last) =      -1      10
(PID.TID 0000.0001)      cg2d_last_res =   6.90862065562468E-08
(PID.TID 0000.0001) // =======================================================
(PID.TID 0000.0001) // Begin MONITOR dynamic field statistics
(PID.TID 0000.0001) // =======================================================
(PID.TID 0000.0001) %MON time_tsnumber                =                 72027
(PID.TID 0000.0001) %MON time_secondsf                =   6.4824300000000E+07
(PID.TID 0000.0001) %MON dynstat_eta_max              =   3.1330687295599E+00
(PID.TID 0000.0001) %MON dynstat_eta_min              =  -4.1379021424816E+00
(PID.TID 0000.0001) %MON dynstat_eta_mean             =   1.9847228300383E-02
(PID.TID 0000.0001) %MON dynstat_eta_sd               =   6.2230355433568E-01
(PID.TID 0000.0001) %MON dynstat_eta_del2             =   3.4710208512377E-03
(PID.TID 0000.0001) %MON dynstat_uvel_max             =   4.1937429112112E-01
(PID.TID 0000.0001) %MON dynstat_uvel_min             =  -7.2177133596324E-01
(PID.TID 0000.0001) %MON dynstat_uvel_mean            =  -1.7067721379473E-05
(PID.TID 0000.0001) %MON dynstat_uvel_sd              =   1.2836971501717E-02
(PID.TID 0000.0001) %MON dynstat_uvel_del2            =   8.5607740969549E-05
(PID.TID 0000.0001) %MON dynstat_vvel_max             =   4.7391900186063E-01
(PID.TID 0000.0001) %MON dynstat_vvel_min             =  -9.5258460179066E-01
(PID.TID 0000.0001) %MON dynstat_vvel_mean            =  -4.4626301946744E-04
(PID.TID 0000.0001) %MON dynstat_vvel_sd              =   1.3951474152393E-02
(PID.TID 0000.0001) %MON dynstat_vvel_del2            =   1.1485504098795E-04
(PID.TID 0000.0001) %MON dynstat_wvel_max             =   1.6122386358131E-04
(PID.TID 0000.0001) %MON dynstat_wvel_min             =  -4.1493958820174E-04
(PID.TID 0000.0001) %MON dynstat_wvel_mean            =  -2.0547485276089E-07
(PID.TID 0000.0001) %MON dynstat_wvel_sd              =   8.6521331980571E-06
(PID.TID 0000.0001) %MON dynstat_wvel_del2            =   7.7018630177811E-08
(PID.TID 0000.0001) %MON dynstat_theta_max            =   3.0922355206486E+01
(PID.TID 0000.0001) %MON dynstat_theta_min            =  -3.0059655389646E+00
(PID.TID 0000.0001) %MON dynstat_theta_mean           =   3.9091137250225E+00
(PID.TID 0000.0001) %MON dynstat_theta_sd             =   4.5713214263209E+00
(PID.TID 0000.0001) %MON dynstat_theta_del2           =   2.6463086098305E-03
(PID.TID 0000.0001) %MON dynstat_salt_max             =   4.1358621926861E+01
(PID.TID 0000.0001) %MON dynstat_salt_min             =   1.8518638835217E+01
(PID.TID 0000.0001) %MON dynstat_salt_mean            =   3.4772045127428E+01
(PID.TID 0000.0001) %MON dynstat_salt_sd              =   5.3137904336767E-01
(PID.TID 0000.0001) %MON dynstat_salt_del2            =   9.0990200624721E-04
(PID.TID 0000.0001) %MON dynstat_sst_max              =   3.0922355206486E+01
(PID.TID 0000.0001) %MON dynstat_sst_min              =  -1.9413569711998E+00
(PID.TID 0000.0001) %MON dynstat_sst_mean             =   1.8108154792727E+01
(PID.TID 0000.0001) %MON dynstat_sst_sd               =   9.8086144744983E+00
(PID.TID 0000.0001) %MON dynstat_sst_del2             =   1.5118875592980E-02
(PID.TID 0000.0001) %MON dynstat_sss_max              =   4.1358621926861E+01
(PID.TID 0000.0001) %MON dynstat_sss_min              =   1.8751391080220E+01
(PID.TID 0000.0001) %MON dynstat_sss_mean             =   3.4630994589915E+01
(PID.TID 0000.0001) %MON dynstat_sss_sd               =   1.4679970039152E+00
(PID.TID 0000.0001) %MON dynstat_sss_del2             =   9.6501824845806E-03
(PID.TID 0000.0001) %MON forcing_qnet_max             =   3.2091276855469E+03
(PID.TID 0000.0001) %MON forcing_qnet_min             =  -1.0684592773438E+04
(PID.TID 0000.0001) %MON forcing_qnet_mean            =  -2.2656817900919E+01
(PID.TID 0000.0001) %MON forcing_qnet_sd              =   2.9919221899089E+02
(PID.TID 0000.0001) %MON forcing_qnet_del2            =   7.2988949941613E+00
(PID.TID 0000.0001) %MON forcing_qsw_max              =   0.0000000000000E+00
(PID.TID 0000.0001) %MON forcing_qsw_min              =  -1.0734129459113E+02
(PID.TID 0000.0001) %MON forcing_qsw_mean             =  -1.7257625238994E+01
(PID.TID 0000.0001) %MON forcing_qsw_sd               =   2.5448238625767E+01
(PID.TID 0000.0001) %MON forcing_qsw_del2             =   2.0962633826094E-01
(PID.TID 0000.0001) %MON forcing_empmr_max            =   8.4743816405535E-03
(PID.TID 0000.0001) %MON forcing_empmr_min            =  -1.3355667889118E-01
(PID.TID 0000.0001) %MON forcing_empmr_mean           =  -4.0820091675966E-04
(PID.TID 0000.0001) %MON forcing_empmr_sd             =   5.9318836682400E-03
(PID.TID 0000.0001) %MON forcing_empmr_del2           =   2.3924004614113E-04
(PID.TID 0000.0001) %MON forcing_fu_max               =   4.8944466854411E-01
(PID.TID 0000.0001) %MON forcing_fu_min               =  -3.8519326561455E-01
(PID.TID 0000.0001) %MON forcing_fu_mean              =  -4.0761345693950E-03
(PID.TID 0000.0001) %MON forcing_fu_sd                =   6.9770777939073E-02
(PID.TID 0000.0001) %MON forcing_fu_del2              =   6.8016827249809E-04
(PID.TID 0000.0001) %MON forcing_fv_max               =   3.2380202783991E-01
(PID.TID 0000.0001) %MON forcing_fv_min               =  -3.0846607338293E-01
(PID.TID 0000.0001) %MON forcing_fv_mean              =  -1.1347543961237E-02
(PID.TID 0000.0001) %MON forcing_fv_sd                =   6.8523520920249E-02
(PID.TID 0000.0001) %MON forcing_fv_del2              =   5.9901765459805E-04
(PID.TID 0000.0001) %MON trAdv_CFL_u_max              =   2.1229139428669E-03
(PID.TID 0000.0001) %MON trAdv_CFL_v_max              =   4.1316211379393E-03
(PID.TID 0000.0001) %MON trAdv_CFL_w_max              =   2.2950475025295E-03
(PID.TID 0000.0001) %MON advcfl_uvel_max              =   2.1243441361685E-03
(PID.TID 0000.0001) %MON advcfl_vvel_max              =   3.1171795165085E-03
(PID.TID 0000.0001) %MON advcfl_wvel_max              =   4.6454497005629E-03
(PID.TID 0000.0001) %MON advcfl_W_hf_max              =   2.2950475025295E-03
(PID.TID 0000.0001) %MON pe_b_mean                    =   5.1642619737080E-04
(PID.TID 0000.0001) %MON ke_max                       =   3.9118468692333E-01
(PID.TID 0000.0001) %MON ke_mean                      =   1.6610021769375E-04
(PID.TID 0000.0001) %MON ke_vol                       =   1.3398095383417E+18
(PID.TID 0000.0001) %MON vort_r_min                   =  -5.4941617978092E-06
(PID.TID 0000.0001) %MON vort_r_max                   =   2.7068916684429E-06
(PID.TID 0000.0001) %MON vort_a_mean                  =  -2.0549865324846E-05
(PID.TID 0000.0001) %MON vort_a_sd                    =   7.5259504057948E-05
(PID.TID 0000.0001) %MON vort_p_mean                  =  -2.4783338487283E-05
(PID.TID 0000.0001) %MON vort_p_sd                    =   1.2811905584223E-04
(PID.TID 0000.0001) %MON surfExpan_theta_mean         =  -7.1054758597210E-06
(PID.TID 0000.0001) %MON surfExpan_salt_mean          =   1.2542089773326E-06
(PID.TID 0000.0001) // =======================================================
(PID.TID 0000.0001) // End MONITOR dynamic field statistics
(PID.TID 0000.0001) // =======================================================
(PID.TID 0000.0001) // =======================================================
(PID.TID 0000.0001) // Begin MONITOR SEAICE statistics
(PID.TID 0000.0001) // =======================================================
(PID.TID 0000.0001) %MON seaice_tsnumber              =                 72027
(PID.TID 0000.0001) %MON seaice_time_sec              =   6.4824300000000E+07
(PID.TID 0000.0001) %MON seaice_uice_max              =   4.6108878280136E-01
(PID.TID 0000.0001) %MON seaice_uice_min              =  -6.5261051181857E-01
(PID.TID 0000.0001) %MON seaice_uice_mean             =  -5.3092695574617E-03
(PID.TID 0000.0001) %MON seaice_uice_sd               =   5.8152555132082E-02
(PID.TID 0000.0001) %MON seaice_uice_del2             =   9.0857413828162E-04
(PID.TID 0000.0001) %MON seaice_vice_max              =   3.3534925271381E-01
(PID.TID 0000.0001) %MON seaice_vice_min              =  -9.3510852174547E-01
(PID.TID 0000.0001) %MON seaice_vice_mean             =  -1.3738895932379E-02
(PID.TID 0000.0001) %MON seaice_vice_sd               =   6.2302220276219E-02
(PID.TID 0000.0001) %MON seaice_vice_del2             =   1.1420524816501E-03
(PID.TID 0000.0001) %MON seaice_area_max              =   1.0000000000000E+00
(PID.TID 0000.0001) %MON seaice_area_min              =   0.0000000000000E+00
(PID.TID 0000.0001) %MON seaice_area_mean             =   6.9241223329933E-02
(PID.TID 0000.0001) %MON seaice_area_sd               =   2.3787376053827E-01
(PID.TID 0000.0001) %MON seaice_area_del2             =   1.7737818610107E-03
(PID.TID 0000.0001) %MON seaice_heff_max              =   8.5019433237951E+00
(PID.TID 0000.0001) %MON seaice_heff_min              =   0.0000000000000E+00
(PID.TID 0000.0001) %MON seaice_heff_mean             =   2.0609881912295E-01
(PID.TID 0000.0001) %MON seaice_heff_sd               =   9.7929455348072E-01
(PID.TID 0000.0001) %MON seaice_heff_del2             =   6.2381489925829E-03
(PID.TID 0000.0001) %MON seaice_hsnow_max             =   2.0317520403848E+00
(PID.TID 0000.0001) %MON seaice_hsnow_min             =   0.0000000000000E+00
(PID.TID 0000.0001) %MON seaice_hsnow_mean            =   2.2764215305330E-02
(PID.TID 0000.0001) %MON seaice_hsnow_sd              =   1.1952979652347E-01
(PID.TID 0000.0001) %MON seaice_hsnow_del2            =   1.4643663957713E-03
(PID.TID 0000.0001) // =======================================================
(PID.TID 0000.0001) // End MONITOR SEAICE statistics
(PID.TID 0000.0001) // =======================================================
 SEAICE_LSR: Residual Initial ipass,Uice,Vice=    1  5.50863566E-03  4.21524148E-03
 SEAICE_LSR (ipass=   1) iters,dU,Resid=     6  9.03886574E-05  2.48812434E-04
 SEAICE_LSR (ipass=   1) iters,dV,Resid=     6  7.79889180E-05  3.67319440E-05
 SEAICE_LSR: Residual Initial ipass,Uice,Vice=    2  3.69601436E-03  2.51983828E-03
 SEAICE_LSR (ipass=   2) iters,dU,Resid=     6  5.62041769E-05  2.06828356E-04
 SEAICE_LSR (ipass=   2) iters,dV,Resid=     6  3.28303755E-05  3.39354128E-05
 cg2d: Sum(rhs),rhsMax =  -2.50148124895287E+01  6.94810766530947E+01
(PID.TID 0000.0001)      cg2d_init_res =   2.14081760146074E-01
(PID.TID 0000.0001)      cg2d_iters(min,last) =      -1      10
(PID.TID 0000.0001)      cg2d_last_res =   7.23889065672266E-08
(PID.TID 0000.0001) // =======================================================
(PID.TID 0000.0001) // Begin MONITOR dynamic field statistics
(PID.TID 0000.0001) // =======================================================
(PID.TID 0000.0001) %MON time_tsnumber                =                 72028
(PID.TID 0000.0001) %MON time_secondsf                =   6.4825200000000E+07
(PID.TID 0000.0001) %MON dynstat_eta_max              =   2.8676795854679E+00
(PID.TID 0000.0001) %MON dynstat_eta_min              =  -3.9128861187224E+00
(PID.TID 0000.0001) %MON dynstat_eta_mean             =   2.0195981513759E-02
(PID.TID 0000.0001) %MON dynstat_eta_sd               =   6.2212255358010E-01
(PID.TID 0000.0001) %MON dynstat_eta_del2             =   3.3175418758261E-03
(PID.TID 0000.0001) %MON dynstat_uvel_max             =   4.0145362968117E-01
(PID.TID 0000.0001) %MON dynstat_uvel_min             =  -7.6700337568791E-01
(PID.TID 0000.0001) %MON dynstat_uvel_mean            =  -4.0543126799950E-05
(PID.TID 0000.0001) %MON dynstat_uvel_sd              =   1.2814872424655E-02
(PID.TID 0000.0001) %MON dynstat_uvel_del2            =   8.4748753596925E-05
(PID.TID 0000.0001) %MON dynstat_vvel_max             =   6.0855776268872E-01
(PID.TID 0000.0001) %MON dynstat_vvel_min             =  -9.4336704959560E-01
(PID.TID 0000.0001) %MON dynstat_vvel_mean            =  -4.4875199572894E-04
(PID.TID 0000.0001) %MON dynstat_vvel_sd              =   1.3996691049980E-02
(PID.TID 0000.0001) %MON dynstat_vvel_del2            =   1.1820689533960E-04
(PID.TID 0000.0001) %MON dynstat_wvel_max             =   1.6968676206416E-04
(PID.TID 0000.0001) %MON dynstat_wvel_min             =  -3.9297402753638E-04
(PID.TID 0000.0001) %MON dynstat_wvel_mean            =  -1.8205023785890E-07
(PID.TID 0000.0001) %MON dynstat_wvel_sd              =   8.5759585613056E-06
(PID.TID 0000.0001) %MON dynstat_wvel_del2            =   7.6228304646524E-08
(PID.TID 0000.0001) %MON dynstat_theta_max            =   3.0922448963816E+01
(PID.TID 0000.0001) %MON dynstat_theta_min            =  -3.0059316765301E+00
(PID.TID 0000.0001) %MON dynstat_theta_mean           =   3.9091166508270E+00
(PID.TID 0000.0001) %MON dynstat_theta_sd             =   4.5713331236848E+00
(PID.TID 0000.0001) %MON dynstat_theta_del2           =   2.6461679593052E-03
(PID.TID 0000.0001) %MON dynstat_salt_max             =   4.1358255843792E+01
(PID.TID 0000.0001) %MON dynstat_salt_min             =   1.8518648912609E+01
(PID.TID 0000.0001) %MON dynstat_salt_mean            =   3.4772040961612E+01
(PID.TID 0000.0001) %MON dynstat_salt_sd              =   5.3139879658096E-01
(PID.TID 0000.0001) %MON dynstat_salt_del2            =   9.1541375296374E-04
(PID.TID 0000.0001) %MON dynstat_sst_max              =   3.0922448963816E+01
(PID.TID 0000.0001) %MON dynstat_sst_min              =  -1.9411679901425E+00
(PID.TID 0000.0001) %MON dynstat_sst_mean             =   1.8108243502351E+01
(PID.TID 0000.0001) %MON dynstat_sst_sd               =   9.8087745831372E+00
(PID.TID 0000.0001) %MON dynstat_sst_del2             =   1.5115876282512E-02
(PID.TID 0000.0001) %MON dynstat_sss_max              =   4.1358255843792E+01
(PID.TID 0000.0001) %MON dynstat_sss_min              =   1.8751391708836E+01
(PID.TID 0000.0001) %MON dynstat_sss_mean             =   3.4630693544285E+01
(PID.TID 0000.0001) %MON dynstat_sss_sd               =   1.4684947061832E+00
(PID.TID 0000.0001) %MON dynstat_sss_del2             =   9.7321730336735E-03
(PID.TID 0000.0001) %MON forcing_qnet_max             =   1.2245730896341E+04
(PID.TID 0000.0001) %MON forcing_qnet_min             =  -2.3614790039062E+03
(PID.TID 0000.0001) %MON forcing_qnet_mean            =  -1.4744412332539E+01
(PID.TID 0000.0001) %MON forcing_qnet_sd              =   3.0634024818522E+02
(PID.TID 0000.0001) %MON forcing_qnet_del2            =   9.3651692497064E+00
(PID.TID 0000.0001) %MON forcing_qsw_max              =   0.0000000000000E+00
(PID.TID 0000.0001) %MON forcing_qsw_min              =  -1.0600317134953E+02
(PID.TID 0000.0001) %MON forcing_qsw_mean             =  -1.6970903770630E+01
(PID.TID 0000.0001) %MON forcing_qsw_sd               =   2.5183347662815E+01
(PID.TID 0000.0001) %MON forcing_qsw_del2             =   2.0841349971528E-01
(PID.TID 0000.0001) %MON forcing_empmr_max            =   8.3870477974415E-03
(PID.TID 0000.0001) %MON forcing_empmr_min            =  -1.2713484466076E-01
(PID.TID 0000.0001) %MON forcing_empmr_mean           =  -4.0106619538214E-04
(PID.TID 0000.0001) %MON forcing_empmr_sd             =   5.8177825786489E-03
(PID.TID 0000.0001) %MON forcing_empmr_del2           =   2.3408121022411E-04
(PID.TID 0000.0001) %MON forcing_fu_max               =   4.6992421805420E-01
(PID.TID 0000.0001) %MON forcing_fu_min               =  -3.8038477439357E-01
(PID.TID 0000.0001) %MON forcing_fu_mean              =  -4.0783279880230E-03
(PID.TID 0000.0001) %MON forcing_fu_sd                =   6.9029742791166E-02
(PID.TID 0000.0001) %MON forcing_fu_del2              =   6.7141580719857E-04
(PID.TID 0000.0001) %MON forcing_fv_max               =   3.2498704605216E-01
(PID.TID 0000.0001) %MON forcing_fv_min               =  -3.0394796096768E-01
(PID.TID 0000.0001) %MON forcing_fv_mean              =  -1.1416631914020E-02
(PID.TID 0000.0001) %MON forcing_fv_sd                =   6.8170606360521E-02
(PID.TID 0000.0001) %MON forcing_fv_del2              =   5.9509523093713E-04
(PID.TID 0000.0001) %MON trAdv_CFL_u_max              =   2.2569031540682E-03
(PID.TID 0000.0001) %MON trAdv_CFL_v_max              =   4.4937181639647E-03
(PID.TID 0000.0001) %MON trAdv_CFL_w_max              =   2.0766899431605E-03
(PID.TID 0000.0001) %MON advcfl_uvel_max              =   2.2574727512413E-03
(PID.TID 0000.0001) %MON advcfl_vvel_max              =   2.9546154399270E-03
(PID.TID 0000.0001) %MON advcfl_wvel_max              =   4.4220815534177E-03
(PID.TID 0000.0001) %MON advcfl_W_hf_max              =   2.0388016922594E-03
(PID.TID 0000.0001) %MON pe_b_mean                    =   5.1614468927105E-04
(PID.TID 0000.0001) %MON ke_max                       =   4.0056703065628E-01
(PID.TID 0000.0001) %MON ke_mean                      =   1.6642784229418E-04
(PID.TID 0000.0001) %MON ke_vol                       =   1.3398096675059E+18
(PID.TID 0000.0001) %MON vort_r_min                   =  -5.6131016335051E-06
(PID.TID 0000.0001) %MON vort_r_max                   =   2.6084434269692E-06
(PID.TID 0000.0001) %MON vort_a_mean                  =  -2.0549865324846E-05
(PID.TID 0000.0001) %MON vort_a_sd                    =   7.5259501990857E-05
(PID.TID 0000.0001) %MON vort_p_mean                  =  -2.4783336142794E-05
(PID.TID 0000.0001) %MON vort_p_sd                    =   1.2811904115013E-04
(PID.TID 0000.0001) %MON surfExpan_theta_mean         =  -7.0615836702884E-06
(PID.TID 0000.0001) %MON surfExpan_salt_mean          =   1.2159106875978E-06
(PID.TID 0000.0001) // =======================================================
(PID.TID 0000.0001) // End MONITOR dynamic field statistics
(PID.TID 0000.0001) // =======================================================
(PID.TID 0000.0001) // =======================================================
(PID.TID 0000.0001) // Begin MONITOR SEAICE statistics
(PID.TID 0000.0001) // =======================================================
(PID.TID 0000.0001) %MON seaice_tsnumber              =                 72028
(PID.TID 0000.0001) %MON seaice_time_sec              =   6.4825200000000E+07
(PID.TID 0000.0001) %MON seaice_uice_max              =   4.2323467555768E-01
(PID.TID 0000.0001) %MON seaice_uice_min              =  -6.9697836238122E-01
(PID.TID 0000.0001) %MON seaice_uice_mean             =  -5.4825518941205E-03
(PID.TID 0000.0001) %MON seaice_uice_sd               =   5.7723038873717E-02
(PID.TID 0000.0001) %MON seaice_uice_del2             =   8.9111578233774E-04
(PID.TID 0000.0001) %MON seaice_vice_max              =   3.8465360828328E-01
(PID.TID 0000.0001) %MON seaice_vice_min              =  -9.1293429522273E-01
(PID.TID 0000.0001) %MON seaice_vice_mean             =  -1.3890636953258E-02
(PID.TID 0000.0001) %MON seaice_vice_sd               =   6.2697904161569E-02
(PID.TID 0000.0001) %MON seaice_vice_del2             =   1.1805070127632E-03
(PID.TID 0000.0001) %MON seaice_area_max              =   1.0000000000000E+00
(PID.TID 0000.0001) %MON seaice_area_min              =   0.0000000000000E+00
(PID.TID 0000.0001) %MON seaice_area_mean             =   6.9237330905823E-02
(PID.TID 0000.0001) %MON seaice_area_sd               =   2.3786016057152E-01
(PID.TID 0000.0001) %MON seaice_area_del2             =   1.7729885968888E-03
(PID.TID 0000.0001) %MON seaice_heff_max              =   8.5036851429128E+00
(PID.TID 0000.0001) %MON seaice_heff_min              =   0.0000000000000E+00
(PID.TID 0000.0001) %MON seaice_heff_mean             =   2.0610503383466E-01
(PID.TID 0000.0001) %MON seaice_heff_sd               =   9.7935525236057E-01
(PID.TID 0000.0001) %MON seaice_heff_del2             =   6.2383599166207E-03
(PID.TID 0000.0001) %MON seaice_hsnow_max             =   2.0317607448613E+00
(PID.TID 0000.0001) %MON seaice_hsnow_min             =   0.0000000000000E+00
(PID.TID 0000.0001) %MON seaice_hsnow_mean            =   2.2762726192558E-02
(PID.TID 0000.0001) %MON seaice_hsnow_sd              =   1.1952671438360E-01
(PID.TID 0000.0001) %MON seaice_hsnow_del2            =   1.4642944296873E-03
(PID.TID 0000.0001) // =======================================================
(PID.TID 0000.0001) // End MONITOR SEAICE statistics
(PID.TID 0000.0001) // =======================================================
 Compute Stats, Diag. #    211  SIarea    vol(   0 ): 1.456E+15  Parms: SM      M1      
 Compute Stats, Diag. #    214  SIheff    vol(   0 ): 1.456E+15  Parms: SM      M1      
 Compute Stats, Diag. #    216  SIhsnow   vol(   0 ): 1.456E+15  Parms: SM      M1      
 Compute Stats, Diag. #     83  sIceLoad  vol(   0 ): 1.456E+15  Parms: SM      U1      
 Compute Stats, Diag. #    220  SIuice    vol(   0 ): 1.383E+15  Parms: UU      M1      
 Compute Stats, Diag. #    221  SIvice    vol(   0 ): 1.391E+15  Parms: VV      M1      
 Compute Stats, Diag. #    222  SItaux    vol(   0 ): 1.383E+15  Parms: UU      U1      
 Compute Stats, Diag. #    223  SItauy    vol(   0 ): 1.391E+15  Parms: VV      U1      
 SEAICE_LSR: Residual Initial ipass,Uice,Vice=    1  5.52978006E-03  3.97064930E-03
 SEAICE_LSR (ipass=   1) iters,dU,Resid=     8  3.98979923E-05  1.43748108E-04
 SEAICE_LSR (ipass=   1) iters,dV,Resid=     8  1.10210328E-05  1.54896546E-05
 SEAICE_LSR: Residual Initial ipass,Uice,Vice=    2  3.62296769E-03  2.24799166E-03
 SEAICE_LSR (ipass=   2) iters,dU,Resid=     6  5.61569044E-05  1.77905118E-04
 SEAICE_LSR (ipass=   2) iters,dV,Resid=     6  1.70035249E-05  3.09776723E-05
 cg2d: Sum(rhs),rhsMax =  -2.74450500878349E+01  6.44014240750509E+01
(PID.TID 0000.0001)      cg2d_init_res =   2.36937963440980E-01
(PID.TID 0000.0001)      cg2d_iters(min,last) =      -1      10
(PID.TID 0000.0001)      cg2d_last_res =   7.83900263365855E-08
(PID.TID 0000.0001) // =======================================================
(PID.TID 0000.0001) // Begin MONITOR dynamic field statistics
(PID.TID 0000.0001) // =======================================================
(PID.TID 0000.0001) %MON time_tsnumber                =                 72029
(PID.TID 0000.0001) %MON time_secondsf                =   6.4826100000000E+07
(PID.TID 0000.0001) %MON dynstat_eta_max              =   2.5839013774225E+00
(PID.TID 0000.0001) %MON dynstat_eta_min              =  -3.6263524698297E+00
(PID.TID 0000.0001) %MON dynstat_eta_mean             =   2.0538119277300E-02
(PID.TID 0000.0001) %MON dynstat_eta_sd               =   6.2180089345557E-01
(PID.TID 0000.0001) %MON dynstat_eta_del2             =   3.1488596880244E-03
(PID.TID 0000.0001) %MON dynstat_uvel_max             =   3.9248694398521E-01
(PID.TID 0000.0001) %MON dynstat_uvel_min             =  -8.0910130639406E-01
(PID.TID 0000.0001) %MON dynstat_uvel_mean            =  -6.8210565730307E-05
(PID.TID 0000.0001) %MON dynstat_uvel_sd              =   1.2810955033577E-02
(PID.TID 0000.0001) %MON dynstat_uvel_del2            =   8.4369744998589E-05
(PID.TID 0000.0001) %MON dynstat_vvel_max             =   7.2945705441976E-01
(PID.TID 0000.0001) %MON dynstat_vvel_min             =  -9.6399762929722E-01
(PID.TID 0000.0001) %MON dynstat_vvel_mean            =  -4.4962135808534E-04
(PID.TID 0000.0001) %MON dynstat_vvel_sd              =   1.4033282353632E-02
(PID.TID 0000.0001) %MON dynstat_vvel_del2            =   1.2122753500069E-04
(PID.TID 0000.0001) %MON dynstat_wvel_max             =   1.7657817978792E-04
(PID.TID 0000.0001) %MON dynstat_wvel_min             =  -3.6762419883966E-04
(PID.TID 0000.0001) %MON dynstat_wvel_mean            =  -1.5791304019838E-07
(PID.TID 0000.0001) %MON dynstat_wvel_sd              =   8.5306857041698E-06
(PID.TID 0000.0001) %MON dynstat_wvel_del2            =   7.5607669629279E-08
(PID.TID 0000.0001) %MON dynstat_theta_max            =   3.0922559804636E+01
(PID.TID 0000.0001) %MON dynstat_theta_min            =  -3.0059018741597E+00
(PID.TID 0000.0001) %MON dynstat_theta_mean           =   3.9091193406054E+00
(PID.TID 0000.0001) %MON dynstat_theta_sd             =   4.5713439140077E+00
(PID.TID 0000.0001) %MON dynstat_theta_del2           =   2.6460273314473E-03
(PID.TID 0000.0001) %MON dynstat_salt_max             =   4.1357887553502E+01
(PID.TID 0000.0001) %MON dynstat_salt_min             =   1.8518659042021E+01
(PID.TID 0000.0001) %MON dynstat_salt_mean            =   3.4772036926623E+01
(PID.TID 0000.0001) %MON dynstat_salt_sd              =   5.3141876753571E-01
(PID.TID 0000.0001) %MON dynstat_salt_del2            =   9.2090554316450E-04
(PID.TID 0000.0001) %MON dynstat_sst_max              =   3.0922559804636E+01
(PID.TID 0000.0001) %MON dynstat_sst_min              =  -1.9409777824998E+00
(PID.TID 0000.0001) %MON dynstat_sst_mean             =   1.8108318346556E+01
(PID.TID 0000.0001) %MON dynstat_sst_sd               =   9.8089266590767E+00
(PID.TID 0000.0001) %MON dynstat_sst_del2             =   1.5112909629145E-02
(PID.TID 0000.0001) %MON dynstat_sss_max              =   4.1357887553502E+01
(PID.TID 0000.0001) %MON dynstat_sss_min              =   1.8751392278994E+01
(PID.TID 0000.0001) %MON dynstat_sss_mean             =   3.4630402359918E+01
(PID.TID 0000.0001) %MON dynstat_sss_sd               =   1.4689987480979E+00
(PID.TID 0000.0001) %MON dynstat_sss_del2             =   9.8136740946127E-03
(PID.TID 0000.0001) %MON forcing_qnet_max             =   2.8794511010857E+03
(PID.TID 0000.0001) %MON forcing_qnet_min             =  -2.2513874511719E+03
(PID.TID 0000.0001) %MON forcing_qnet_mean            =  -1.1193599099746E+01
(PID.TID 0000.0001) %MON forcing_qnet_sd              =   2.4650937918883E+02
(PID.TID 0000.0001) %MON forcing_qnet_del2            =   5.9009248989218E+00
(PID.TID 0000.0001) %MON forcing_qsw_max              =   0.0000000000000E+00
(PID.TID 0000.0001) %MON forcing_qsw_min              =  -1.0270714796994E+02
(PID.TID 0000.0001) %MON forcing_qsw_mean             =  -1.6399348404909E+01
(PID.TID 0000.0001) %MON forcing_qsw_sd               =   2.4688900501579E+01
(PID.TID 0000.0001) %MON forcing_qsw_del2             =   2.0496841326717E-01
(PID.TID 0000.0001) %MON forcing_empmr_max            =   8.3005512133241E-03
(PID.TID 0000.0001) %MON forcing_empmr_min            =  -1.2207837402821E-01
(PID.TID 0000.0001) %MON forcing_empmr_mean           =  -3.9345842807234E-04
(PID.TID 0000.0001) %MON forcing_empmr_sd             =   5.7007560007453E-03
(PID.TID 0000.0001) %MON forcing_empmr_del2           =   2.2848493418004E-04
(PID.TID 0000.0001) %MON forcing_fu_max               =   4.5627014102714E-01
(PID.TID 0000.0001) %MON forcing_fu_min               =  -3.7691178615608E-01
(PID.TID 0000.0001) %MON forcing_fu_mean              =  -4.0874285919799E-03
(PID.TID 0000.0001) %MON forcing_fu_sd                =   6.8333463258660E-02
(PID.TID 0000.0001) %MON forcing_fu_del2              =   6.6426399531278E-04
(PID.TID 0000.0001) %MON forcing_fv_max               =   3.2478683473643E-01
(PID.TID 0000.0001) %MON forcing_fv_min               =  -3.0053376890567E-01
(PID.TID 0000.0001) %MON forcing_fv_mean              =  -1.1527551667750E-02
(PID.TID 0000.0001) %MON forcing_fv_sd                =   6.7752365373754E-02
(PID.TID 0000.0001) %MON forcing_fv_del2              =   5.9073487795372E-04
(PID.TID 0000.0001) %MON trAdv_CFL_u_max              =   2.3822468757860E-03
(PID.TID 0000.0001) %MON trAdv_CFL_v_max              =   4.7937170465965E-03
(PID.TID 0000.0001) %MON trAdv_CFL_w_max              =   2.0251102433699E-03
(PID.TID 0000.0001) %MON advcfl_uvel_max              =   2.3813769405385E-03
(PID.TID 0000.0001) %MON advcfl_vvel_max              =   3.1458759020479E-03
(PID.TID 0000.0001) %MON advcfl_wvel_max              =   4.2462043140246E-03
(PID.TID 0000.0001) %MON advcfl_W_hf_max              =   1.9922669221844E-03
(PID.TID 0000.0001) %MON pe_b_mean                    =   5.1563017488807E-04
(PID.TID 0000.0001) %MON ke_max                       =   4.0556477280157E-01
(PID.TID 0000.0001) %MON ke_mean                      =   1.6685939390067E-04
(PID.TID 0000.0001) %MON ke_vol                       =   1.3398097944126E+18
(PID.TID 0000.0001) %MON vort_r_min                   =  -5.6918310100433E-06
(PID.TID 0000.0001) %MON vort_r_max                   =   2.4968530632944E-06
(PID.TID 0000.0001) %MON vort_a_mean                  =  -2.0549865324846E-05
(PID.TID 0000.0001) %MON vort_a_sd                    =   7.5259500257554E-05
(PID.TID 0000.0001) %MON vort_p_mean                  =  -2.4783333875623E-05
(PID.TID 0000.0001) %MON vort_p_sd                    =   1.2811903086061E-04
(PID.TID 0000.0001) %MON surfExpan_theta_mean         =  -7.0174898873768E-06
(PID.TID 0000.0001) %MON surfExpan_salt_mean          =   1.1773765720621E-06
(PID.TID 0000.0001) // =======================================================
(PID.TID 0000.0001) // End MONITOR dynamic field statistics
(PID.TID 0000.0001) // =======================================================
(PID.TID 0000.0001) // =======================================================
(PID.TID 0000.0001) // Begin MONITOR SEAICE statistics
(PID.TID 0000.0001) // =======================================================
(PID.TID 0000.0001) %MON seaice_tsnumber              =                 72029
(PID.TID 0000.0001) %MON seaice_time_sec              =   6.4826100000000E+07
(PID.TID 0000.0001) %MON seaice_uice_max              =   3.8145463052802E-01
(PID.TID 0000.0001) %MON seaice_uice_min              =  -7.3960712902607E-01
(PID.TID 0000.0001) %MON seaice_uice_mean             =  -5.6626606185482E-03
(PID.TID 0000.0001) %MON seaice_uice_sd               =   5.7448936551502E-02
(PID.TID 0000.0001) %MON seaice_uice_del2             =   8.7828727163156E-04
(PID.TID 0000.0001) %MON seaice_vice_max              =   5.0594369043134E-01
(PID.TID 0000.0001) %MON seaice_vice_min              =  -9.0572300119576E-01
(PID.TID 0000.0001) %MON seaice_vice_mean             =  -1.4029065589883E-02
(PID.TID 0000.0001) %MON seaice_vice_sd               =   6.3100935276731E-02
(PID.TID 0000.0001) %MON seaice_vice_del2             =   1.2206562201962E-03
(PID.TID 0000.0001) %MON seaice_area_max              =   1.0000000000000E+00
(PID.TID 0000.0001) %MON seaice_area_min              =   0.0000000000000E+00
(PID.TID 0000.0001) %MON seaice_area_mean             =   6.9233369190627E-02
(PID.TID 0000.0001) %MON seaice_area_sd               =   2.3784639369050E-01
(PID.TID 0000.0001) %MON seaice_area_del2             =   1.7721842487205E-03
(PID.TID 0000.0001) %MON seaice_heff_max              =   8.5053780494037E+00
(PID.TID 0000.0001) %MON seaice_heff_min              =   0.0000000000000E+00
(PID.TID 0000.0001) %MON seaice_heff_mean             =   2.0611065895162E-01
(PID.TID 0000.0001) %MON seaice_heff_sd               =   9.7941316538656E-01
(PID.TID 0000.0001) %MON seaice_heff_del2             =   6.2385578026497E-03
(PID.TID 0000.0001) %MON seaice_hsnow_max             =   2.0317675248932E+00
(PID.TID 0000.0001) %MON seaice_hsnow_min             =   0.0000000000000E+00
(PID.TID 0000.0001) %MON seaice_hsnow_mean            =   2.2761399617429E-02
(PID.TID 0000.0001) %MON seaice_hsnow_sd              =   1.1952370806918E-01
(PID.TID 0000.0001) %MON seaice_hsnow_del2            =   1.4642212147598E-03
(PID.TID 0000.0001) // =======================================================
(PID.TID 0000.0001) // End MONITOR SEAICE statistics
(PID.TID 0000.0001) // =======================================================
 Computing Diagnostic #    211  SIarea       Counter:       1   Parms: SM      M1      
 Computing Diagnostic #    214  SIheff       Counter:       1   Parms: SM      M1      
 Computing Diagnostic #    216  SIhsnow      Counter:       1   Parms: SM      M1      
 Computing Diagnostic #     83  sIceLoad     Counter:       1   Parms: SM      U1      
 Computing Diagnostic #    220  SIuice       Counter:       1   Parms: UU      M1      
           Vector  Mate for  SIuice       Diagnostic #    221  SIvice   exists 
 Computing Diagnostic #    221  SIvice       Counter:       1   Parms: VV      M1      
           Vector  Mate for  SIvice       Diagnostic #    220  SIuice   exists 
 Computing Diagnostic #    222  SItaux       Counter:       1   Parms: UU      U1      
           Vector  Mate for  SItaux       Diagnostic #    223  SItauy   exists 
 Computing Diagnostic #    223  SItauy       Counter:       1   Parms: VV      U1      
           Vector  Mate for  SItauy       Diagnostic #    222  SItaux   exists 
 Computing Diagnostic #      1  SDIAG1       Counter:       1   Parms: SM      L1      
 Computing Diagnostic #    282  SIareaN      Counter:       1   Parms: SM      MX      
 Computing Diagnostic #    281  SIheffN      Counter:       1   Parms: SM      MX      
 Computing Diagnostic #    283  SIhsnowN     Counter:       1   Parms: SM      MX      
 SEAICE_LSR: Residual Initial ipass,Uice,Vice=    1  5.43162753E-03  3.64362412E-03
 SEAICE_LSR (ipass=   1) iters,dU,Resid=     6  9.67117091E-05  1.94857987E-04
 SEAICE_LSR (ipass=   1) iters,dV,Resid=     6  2.34413331E-05  2.78294566E-05
 SEAICE_LSR: Residual Initial ipass,Uice,Vice=    2  3.54890956E-03  1.91823254E-03
 SEAICE_LSR (ipass=   2) iters,dU,Resid=     6  5.24027583E-05  1.68222035E-04
 SEAICE_LSR (ipass=   2) iters,dV,Resid=     6  7.15317561E-06  2.51278555E-05
 cg2d: Sum(rhs),rhsMax =  -3.07888078924859E+01  5.83427469641330E+01
(PID.TID 0000.0001)      cg2d_init_res =   2.69152334663014E-01
(PID.TID 0000.0001)      cg2d_iters(min,last) =      -1      10
(PID.TID 0000.0001)      cg2d_last_res =   8.66016517542902E-08
(PID.TID 0000.0001) // =======================================================
(PID.TID 0000.0001) // Begin MONITOR dynamic field statistics
(PID.TID 0000.0001) // =======================================================
(PID.TID 0000.0001) %MON time_tsnumber                =                 72030
(PID.TID 0000.0001) %MON time_secondsf                =   6.4827000000000E+07
(PID.TID 0000.0001) %MON dynstat_eta_max              =   2.2864950936503E+00
(PID.TID 0000.0001) %MON dynstat_eta_min              =  -3.2848772218789E+00
(PID.TID 0000.0001) %MON dynstat_eta_mean             =   2.0872810022478E-02
(PID.TID 0000.0001) %MON dynstat_eta_sd               =   6.2137878385286E-01
(PID.TID 0000.0001) %MON dynstat_eta_del2             =   2.9716356308835E-03
(PID.TID 0000.0001) %MON dynstat_uvel_max             =   3.7966585110579E-01
(PID.TID 0000.0001) %MON dynstat_uvel_min             =  -8.4728469488841E-01
(PID.TID 0000.0001) %MON dynstat_uvel_mean            =  -9.9382052619623E-05
(PID.TID 0000.0001) %MON dynstat_uvel_sd              =   1.2822347246489E-02
(PID.TID 0000.0001) %MON dynstat_uvel_del2            =   8.4352150536799E-05
(PID.TID 0000.0001) %MON dynstat_vvel_max             =   8.3545727710141E-01
(PID.TID 0000.0001) %MON dynstat_vvel_min             =  -1.0415761516894E+00
(PID.TID 0000.0001) %MON dynstat_vvel_mean            =  -4.4821066730187E-04
(PID.TID 0000.0001) %MON dynstat_vvel_sd              =   1.4058451589020E-02
(PID.TID 0000.0001) %MON dynstat_vvel_del2            =   1.2378559560840E-04
(PID.TID 0000.0001) %MON dynstat_wvel_max             =   1.8210968530689E-04
(PID.TID 0000.0001) %MON dynstat_wvel_min             =  -3.4088261198501E-04
(PID.TID 0000.0001) %MON dynstat_wvel_mean            =  -1.3380114790580E-07
(PID.TID 0000.0001) %MON dynstat_wvel_sd              =   8.5073448702373E-06
(PID.TID 0000.0001) %MON dynstat_wvel_del2            =   7.5124330827865E-08
(PID.TID 0000.0001) %MON dynstat_theta_max            =   3.0922683140006E+01
(PID.TID 0000.0001) %MON dynstat_theta_min            =  -3.0058664702286E+00
(PID.TID 0000.0001) %MON dynstat_theta_mean           =   3.9091217560526E+00
(PID.TID 0000.0001) %MON dynstat_theta_sd             =   4.5713536705741E+00
(PID.TID 0000.0001) %MON dynstat_theta_del2           =   2.6458860871334E-03
(PID.TID 0000.0001) %MON dynstat_salt_max             =   4.1357537245098E+01
(PID.TID 0000.0001) %MON dynstat_salt_min             =   1.8518669223223E+01
(PID.TID 0000.0001) %MON dynstat_salt_mean            =   3.4772032949644E+01
(PID.TID 0000.0001) %MON dynstat_salt_sd              =   5.3143862526735E-01
(PID.TID 0000.0001) %MON dynstat_salt_del2            =   9.2637308136841E-04
(PID.TID 0000.0001) %MON dynstat_sst_max              =   3.0922683140006E+01
(PID.TID 0000.0001) %MON dynstat_sst_min              =  -1.9407854525413E+00
(PID.TID 0000.0001) %MON dynstat_sst_mean             =   1.8108376181200E+01
(PID.TID 0000.0001) %MON dynstat_sst_sd               =   9.8090706911727E+00
(PID.TID 0000.0001) %MON dynstat_sst_del2             =   1.5109951285304E-02
(PID.TID 0000.0001) %MON dynstat_sss_max              =   4.1357537245098E+01
(PID.TID 0000.0001) %MON dynstat_sss_min              =   1.8751393792581E+01
(PID.TID 0000.0001) %MON dynstat_sss_mean             =   3.4630115729039E+01
(PID.TID 0000.0001) %MON dynstat_sss_sd               =   1.4694997694182E+00
(PID.TID 0000.0001) %MON dynstat_sss_del2             =   9.8946263301805E-03
(PID.TID 0000.0001) %MON forcing_qnet_max             =   5.1455307617188E+03
(PID.TID 0000.0001) %MON forcing_qnet_min             =  -2.0451975097656E+03
(PID.TID 0000.0001) %MON forcing_qnet_mean            =  -6.9427463060095E+00
(PID.TID 0000.0001) %MON forcing_qnet_sd              =   2.5672604899621E+02
(PID.TID 0000.0001) %MON forcing_qnet_del2            =   6.9108483436532E+00
(PID.TID 0000.0001) %MON forcing_qsw_max              =   0.0000000000000E+00
(PID.TID 0000.0001) %MON forcing_qsw_min              =  -1.0052871133283E+02
(PID.TID 0000.0001) %MON forcing_qsw_mean             =  -1.6208181654710E+01
(PID.TID 0000.0001) %MON forcing_qsw_sd               =   2.4610245125025E+01
(PID.TID 0000.0001) %MON forcing_qsw_del2             =   2.0323010407900E-01
(PID.TID 0000.0001) %MON forcing_empmr_max            =   8.2149896770716E-03
(PID.TID 0000.0001) %MON forcing_empmr_min            =  -1.1807961016893E-01
(PID.TID 0000.0001) %MON forcing_empmr_mean           =  -3.8489435695427E-04
(PID.TID 0000.0001) %MON forcing_empmr_sd             =   5.5754636721417E-03
(PID.TID 0000.0001) %MON forcing_empmr_del2           =   2.2229175912194E-04
(PID.TID 0000.0001) %MON forcing_fu_max               =   4.4103386677725E-01
(PID.TID 0000.0001) %MON forcing_fu_min               =  -3.7387046749935E-01
(PID.TID 0000.0001) %MON forcing_fu_mean              =  -4.0800687559220E-03
(PID.TID 0000.0001) %MON forcing_fu_sd                =   6.7661698200282E-02
(PID.TID 0000.0001) %MON forcing_fu_del2              =   6.5692218558630E-04
(PID.TID 0000.0001) %MON forcing_fv_max               =   3.2139929365735E-01
(PID.TID 0000.0001) %MON forcing_fv_min               =  -2.9721669465044E-01
(PID.TID 0000.0001) %MON forcing_fv_mean              =  -1.1656573598581E-02
(PID.TID 0000.0001) %MON forcing_fv_sd                =   6.7279057653415E-02
(PID.TID 0000.0001) %MON forcing_fv_del2              =   5.8537818809571E-04
(PID.TID 0000.0001) %MON trAdv_CFL_u_max              =   2.4967080488679E-03
(PID.TID 0000.0001) %MON trAdv_CFL_v_max              =   5.0285468342244E-03
(PID.TID 0000.0001) %MON trAdv_CFL_w_max              =   1.9691967805033E-03
(PID.TID 0000.0001) %MON advcfl_uvel_max              =   2.4937597041720E-03
(PID.TID 0000.0001) %MON advcfl_vvel_max              =   3.3990429189503E-03
(PID.TID 0000.0001) %MON advcfl_wvel_max              =   4.1071168754412E-03
(PID.TID 0000.0001) %MON advcfl_W_hf_max              =   2.1429764304956E-03
(PID.TID 0000.0001) %MON pe_b_mean                    =   5.1494951992300E-04
(PID.TID 0000.0001) %MON ke_max                       =   4.0611733504945E-01
(PID.TID 0000.0001) %MON ke_mean                      =   1.6732345022059E-04
(PID.TID 0000.0001) %MON ke_vol                       =   1.3398099189120E+18
(PID.TID 0000.0001) %MON vort_r_min                   =  -5.7283172334446E-06
(PID.TID 0000.0001) %MON vort_r_max                   =   2.7575693322990E-06
(PID.TID 0000.0001) %MON vort_a_mean                  =  -2.0549865324846E-05
(PID.TID 0000.0001) %MON vort_a_sd                    =   7.5259499050143E-05
(PID.TID 0000.0001) %MON vort_p_mean                  =  -2.4783331687384E-05
(PID.TID 0000.0001) %MON vort_p_sd                    =   1.2811902559774E-04
(PID.TID 0000.0001) %MON surfExpan_theta_mean         =  -6.9767637473689E-06
(PID.TID 0000.0001) %MON surfExpan_salt_mean          =   1.1388141702516E-06
(PID.TID 0000.0001) // =======================================================
(PID.TID 0000.0001) // End MONITOR dynamic field statistics
(PID.TID 0000.0001) // =======================================================
(PID.TID 0000.0001) // =======================================================
(PID.TID 0000.0001) // Begin MONITOR SEAICE statistics
(PID.TID 0000.0001) // =======================================================
(PID.TID 0000.0001) %MON seaice_tsnumber              =                 72030
(PID.TID 0000.0001) %MON seaice_time_sec              =   6.4827000000000E+07
(PID.TID 0000.0001) %MON seaice_uice_max              =   3.3724618504508E-01
(PID.TID 0000.0001) %MON seaice_uice_min              =  -7.7955184835232E-01
(PID.TID 0000.0001) %MON seaice_uice_mean             =  -5.8515220048481E-03
(PID.TID 0000.0001) %MON seaice_uice_sd               =   5.7342663931432E-02
(PID.TID 0000.0001) %MON seaice_uice_del2             =   8.7040200826238E-04
(PID.TID 0000.0001) %MON seaice_vice_max              =   6.2313399839069E-01
(PID.TID 0000.0001) %MON seaice_vice_min              =  -8.8888882221110E-01
(PID.TID 0000.0001) %MON seaice_vice_mean             =  -1.4151327465347E-02
(PID.TID 0000.0001) %MON seaice_vice_sd               =   6.3476194822787E-02
(PID.TID 0000.0001) %MON seaice_vice_del2             =   1.2610617318131E-03
(PID.TID 0000.0001) %MON seaice_area_max              =   1.0000000000000E+00
(PID.TID 0000.0001) %MON seaice_area_min              =   0.0000000000000E+00
(PID.TID 0000.0001) %MON seaice_area_mean             =   6.9229339261569E-02
(PID.TID 0000.0001) %MON seaice_area_sd               =   2.3783210441574E-01
(PID.TID 0000.0001) %MON seaice_area_del2             =   1.7712986875009E-03
(PID.TID 0000.0001) %MON seaice_heff_max              =   8.5070215252579E+00
(PID.TID 0000.0001) %MON seaice_heff_min              =   0.0000000000000E+00
(PID.TID 0000.0001) %MON seaice_heff_mean             =   2.0611570988431E-01
(PID.TID 0000.0001) %MON seaice_heff_sd               =   9.7946834671309E-01
(PID.TID 0000.0001) %MON seaice_heff_del2             =   6.2387388154524E-03
(PID.TID 0000.0001) %MON seaice_hsnow_max             =   2.0317747110727E+00
(PID.TID 0000.0001) %MON seaice_hsnow_min             =   0.0000000000000E+00
(PID.TID 0000.0001) %MON seaice_hsnow_mean            =   2.2760206655149E-02
(PID.TID 0000.0001) %MON seaice_hsnow_sd              =   1.1952082234887E-01
(PID.TID 0000.0001) %MON seaice_hsnow_del2            =   1.4641452640709E-03
(PID.TID 0000.0001) // =======================================================
(PID.TID 0000.0001) // End MONITOR SEAICE statistics
(PID.TID 0000.0001) // =======================================================
 SEAICE_LSR: Residual Initial ipass,Uice,Vice=    1  5.36565009E-03  3.28687797E-03
 SEAICE_LSR (ipass=   1) iters,dU,Resid=     6  8.80940467E-05  1.76125516E-04
 SEAICE_LSR (ipass=   1) iters,dV,Resid=     6  1.01113270E-05  2.32180258E-05
 SEAICE_LSR: Residual Initial ipass,Uice,Vice=    2  3.56310964E-03  1.73773364E-03
 SEAICE_LSR (ipass=   2) iters,dU,Resid=     6  4.57031255E-05  1.54341808E-04
 SEAICE_LSR (ipass=   2) iters,dV,Resid=     6  3.39964455E-06  2.12077142E-05
 cg2d: Sum(rhs),rhsMax =  -3.54675301562119E+01  5.14373275463602E+01
(PID.TID 0000.0001)      cg2d_init_res =   3.13003008497380E-01
(PID.TID 0000.0001)      cg2d_iters(min,last) =      -1      10
(PID.TID 0000.0001)      cg2d_last_res =   9.85560446615331E-08
(PID.TID 0000.0001) // =======================================================
(PID.TID 0000.0001) // Begin MONITOR dynamic field statistics
(PID.TID 0000.0001) // =======================================================
(PID.TID 0000.0001) %MON time_tsnumber                =                 72031
(PID.TID 0000.0001) %MON time_secondsf                =   6.4827900000000E+07
(PID.TID 0000.0001) %MON dynstat_eta_max              =   1.9802571856793E+00
(PID.TID 0000.0001) %MON dynstat_eta_min              =  -2.8959109027533E+00
(PID.TID 0000.0001) %MON dynstat_eta_mean             =   2.1198762847847E-02
(PID.TID 0000.0001) %MON dynstat_eta_sd               =   6.2089956297469E-01
(PID.TID 0000.0001) %MON dynstat_eta_del2             =   2.7930228807806E-03
(PID.TID 0000.0001) %MON dynstat_uvel_max             =   3.6315112518411E-01
(PID.TID 0000.0001) %MON dynstat_uvel_min             =  -8.8080669908719E-01
(PID.TID 0000.0001) %MON dynstat_uvel_mean            =  -1.3328931595079E-04
(PID.TID 0000.0001) %MON dynstat_uvel_sd              =   1.2845322638605E-02
(PID.TID 0000.0001) %MON dynstat_uvel_del2            =   8.4577468296890E-05
(PID.TID 0000.0001) %MON dynstat_vvel_max             =   9.2570800512573E-01
(PID.TID 0000.0001) %MON dynstat_vvel_min             =  -1.1012459374682E+00
(PID.TID 0000.0001) %MON dynstat_vvel_mean            =  -4.4390944283923E-04
(PID.TID 0000.0001) %MON dynstat_vvel_sd              =   1.4070463303122E-02
(PID.TID 0000.0001) %MON dynstat_vvel_del2            =   1.2579995098497E-04
(PID.TID 0000.0001) %MON dynstat_wvel_max             =   1.8646446926402E-04
(PID.TID 0000.0001) %MON dynstat_wvel_min             =  -3.1439923176897E-04
(PID.TID 0000.0001) %MON dynstat_wvel_mean            =  -1.0984065679152E-07
(PID.TID 0000.0001) %MON dynstat_wvel_sd              =   8.4944954103293E-06
(PID.TID 0000.0001) %MON dynstat_wvel_del2            =   7.4783361454341E-08
(PID.TID 0000.0001) %MON dynstat_theta_max            =   3.0922817974257E+01
(PID.TID 0000.0001) %MON dynstat_theta_min            =  -3.0058186254401E+00
(PID.TID 0000.0001) %MON dynstat_theta_mean           =   3.9091240388156E+00
(PID.TID 0000.0001) %MON dynstat_theta_sd             =   4.5713631374493E+00
(PID.TID 0000.0001) %MON dynstat_theta_del2           =   2.6457509349931E-03
(PID.TID 0000.0001) %MON dynstat_salt_max             =   4.1357201745065E+01
(PID.TID 0000.0001) %MON dynstat_salt_min             =   1.8518679455723E+01
(PID.TID 0000.0001) %MON dynstat_salt_mean            =   3.4772029090001E+01
(PID.TID 0000.0001) %MON dynstat_salt_sd              =   5.3145838253524E-01
(PID.TID 0000.0001) %MON dynstat_salt_del2            =   9.3181024658797E-04
(PID.TID 0000.0001) %MON dynstat_sst_max              =   3.0922817974257E+01
(PID.TID 0000.0001) %MON dynstat_sst_min              =  -1.9405923063819E+00
(PID.TID 0000.0001) %MON dynstat_sst_mean             =   1.8108427559297E+01
(PID.TID 0000.0001) %MON dynstat_sst_sd               =   9.8092172665731E+00
(PID.TID 0000.0001) %MON dynstat_sst_del2             =   1.5107180483127E-02
(PID.TID 0000.0001) %MON dynstat_sss_max              =   4.1357201745065E+01
(PID.TID 0000.0001) %MON dynstat_sss_min              =   1.8751396161080E+01
(PID.TID 0000.0001) %MON dynstat_sss_mean             =   3.4629838029760E+01
(PID.TID 0000.0001) %MON dynstat_sss_sd               =   1.4699985144800E+00
(PID.TID 0000.0001) %MON dynstat_sss_del2             =   9.9749443462465E-03
(PID.TID 0000.0001) %MON forcing_qnet_max             =   2.8019964143944E+03
(PID.TID 0000.0001) %MON forcing_qnet_min             =  -1.7636007944646E+03
(PID.TID 0000.0001) %MON forcing_qnet_mean            =  -5.1282745766628E+00
(PID.TID 0000.0001) %MON forcing_qnet_sd              =   2.4045914935602E+02
(PID.TID 0000.0001) %MON forcing_qnet_del2            =   5.5637153412172E+00
(PID.TID 0000.0001) %MON forcing_qsw_max              =   0.0000000000000E+00
(PID.TID 0000.0001) %MON forcing_qsw_min              =  -9.7933455694558E+01
(PID.TID 0000.0001) %MON forcing_qsw_mean             =  -1.5972920991570E+01
(PID.TID 0000.0001) %MON forcing_qsw_sd               =   2.4524925320647E+01
(PID.TID 0000.0001) %MON forcing_qsw_del2             =   2.0093359727603E-01
(PID.TID 0000.0001) %MON forcing_empmr_max            =   8.1302635371685E-03
(PID.TID 0000.0001) %MON forcing_empmr_min            =  -1.1686293035746E-01
(PID.TID 0000.0001) %MON forcing_empmr_mean           =  -3.7484574917456E-04
(PID.TID 0000.0001) %MON forcing_empmr_sd             =   5.4568841138166E-03
(PID.TID 0000.0001) %MON forcing_empmr_del2           =   2.1642402024675E-04
(PID.TID 0000.0001) %MON forcing_fu_max               =   4.2911531738200E-01
(PID.TID 0000.0001) %MON forcing_fu_min               =  -3.7094891834710E-01
(PID.TID 0000.0001) %MON forcing_fu_mean              =  -4.0676197253260E-03
(PID.TID 0000.0001) %MON forcing_fu_sd                =   6.7014654921594E-02
(PID.TID 0000.0001) %MON forcing_fu_del2              =   6.5116066733505E-04
(PID.TID 0000.0001) %MON forcing_fv_max               =   3.1973854666190E-01
(PID.TID 0000.0001) %MON forcing_fv_min               =  -2.9436412422269E-01
(PID.TID 0000.0001) %MON forcing_fv_mean              =  -1.1801722561258E-02
(PID.TID 0000.0001) %MON forcing_fv_sd                =   6.6835927613230E-02
(PID.TID 0000.0001) %MON forcing_fv_del2              =   5.8061692084370E-04
(PID.TID 0000.0001) %MON trAdv_CFL_u_max              =   2.5981197540483E-03
(PID.TID 0000.0001) %MON trAdv_CFL_v_max              =   5.1961559853253E-03
(PID.TID 0000.0001) %MON trAdv_CFL_w_max              =   1.9092637222984E-03
(PID.TID 0000.0001) %MON advcfl_uvel_max              =   2.5924229088520E-03
(PID.TID 0000.0001) %MON advcfl_vvel_max              =   3.5937671957088E-03
(PID.TID 0000.0001) %MON advcfl_wvel_max              =   4.0647975776506E-03
(PID.TID 0000.0001) %MON advcfl_W_hf_max              =   2.2867816166788E-03
(PID.TID 0000.0001) %MON pe_b_mean                    =   5.1417466234666E-04
(PID.TID 0000.0001) %MON ke_max                       =   4.0228216134578E-01
(PID.TID 0000.0001) %MON ke_mean                      =   1.6775300957890E-04
(PID.TID 0000.0001) %MON ke_vol                       =   1.3398100407015E+18
(PID.TID 0000.0001) %MON vort_r_min                   =  -5.7211184436002E-06
(PID.TID 0000.0001) %MON vort_r_max                   =   3.0554572634221E-06
(PID.TID 0000.0001) %MON vort_a_mean                  =  -2.0549865324846E-05
(PID.TID 0000.0001) %MON vort_a_sd                    =   7.5259498550374E-05
(PID.TID 0000.0001) %MON vort_p_mean                  =  -2.4783329581304E-05
(PID.TID 0000.0001) %MON vort_p_sd                    =   1.2811902557714E-04
(PID.TID 0000.0001) %MON surfExpan_theta_mean         =  -6.9276088223545E-06
(PID.TID 0000.0001) %MON surfExpan_salt_mean          =   1.1001067470658E-06
(PID.TID 0000.0001) // =======================================================
(PID.TID 0000.0001) // End MONITOR dynamic field statistics
(PID.TID 0000.0001) // =======================================================
(PID.TID 0000.0001) // =======================================================
(PID.TID 0000.0001) // Begin MONITOR SEAICE statistics
(PID.TID 0000.0001) // =======================================================
(PID.TID 0000.0001) %MON seaice_tsnumber              =                 72031
(PID.TID 0000.0001) %MON seaice_time_sec              =   6.4827900000000E+07
(PID.TID 0000.0001) %MON seaice_uice_max              =   2.9093208091800E-01
(PID.TID 0000.0001) %MON seaice_uice_min              =  -8.1584436959718E-01
(PID.TID 0000.0001) %MON seaice_uice_mean             =  -6.0345111121498E-03
(PID.TID 0000.0001) %MON seaice_uice_sd               =   5.7374590670401E-02
(PID.TID 0000.0001) %MON seaice_uice_del2             =   8.6702413695975E-04
(PID.TID 0000.0001) %MON seaice_vice_max              =   7.2950778064462E-01
(PID.TID 0000.0001) %MON seaice_vice_min              =  -9.4917021016158E-01
(PID.TID 0000.0001) %MON seaice_vice_mean             =  -1.4262405287382E-02
(PID.TID 0000.0001) %MON seaice_vice_sd               =   6.3782307377157E-02
(PID.TID 0000.0001) %MON seaice_vice_del2             =   1.2973770102422E-03
(PID.TID 0000.0001) %MON seaice_area_max              =   1.0000000000000E+00
(PID.TID 0000.0001) %MON seaice_area_min              =   0.0000000000000E+00
(PID.TID 0000.0001) %MON seaice_area_mean             =   6.9225241116779E-02
(PID.TID 0000.0001) %MON seaice_area_sd               =   2.3781769561133E-01
(PID.TID 0000.0001) %MON seaice_area_del2             =   1.7704072319792E-03
(PID.TID 0000.0001) %MON seaice_heff_max              =   8.5086169053547E+00
(PID.TID 0000.0001) %MON seaice_heff_min              =   0.0000000000000E+00
(PID.TID 0000.0001) %MON seaice_heff_mean             =   2.0612020601944E-01
(PID.TID 0000.0001) %MON seaice_heff_sd               =   9.7952091635906E-01
(PID.TID 0000.0001) %MON seaice_heff_del2             =   6.2389065358576E-03
(PID.TID 0000.0001) %MON seaice_hsnow_max             =   2.0317738114147E+00
(PID.TID 0000.0001) %MON seaice_hsnow_min             =   0.0000000000000E+00
(PID.TID 0000.0001) %MON seaice_hsnow_mean            =   2.2759069844481E-02
(PID.TID 0000.0001) %MON seaice_hsnow_sd              =   1.1951789773748E-01
(PID.TID 0000.0001) %MON seaice_hsnow_del2            =   1.4640685023316E-03
(PID.TID 0000.0001) // =======================================================
(PID.TID 0000.0001) // End MONITOR SEAICE statistics
(PID.TID 0000.0001) // =======================================================
 SEAICE_LSR: Residual Initial ipass,Uice,Vice=    1  5.26117681E-03  2.97140548E-03
 SEAICE_LSR (ipass=   1) iters,dU,Resid=     6  7.28708308E-05  1.62086811E-04
 SEAICE_LSR (ipass=   1) iters,dV,Resid=     6  4.77825735E-06  2.04879982E-05
 SEAICE_LSR: Residual Initial ipass,Uice,Vice=    2  3.54697960E-03  1.61268158E-03
 SEAICE_LSR (ipass=   2) iters,dU,Resid=     6  3.62232719E-05  1.42649618E-04
 SEAICE_LSR (ipass=   2) iters,dV,Resid=     6  3.43150120E-06  1.85082762E-05
 cg2d: Sum(rhs),rhsMax =  -4.22475516992673E+01  4.38293993418239E+01
(PID.TID 0000.0001)      cg2d_init_res =   3.73569539553238E-01
(PID.TID 0000.0001)      cg2d_iters(min,last) =      -1      11
(PID.TID 0000.0001)      cg2d_last_res =   3.17930545645137E-08
(PID.TID 0000.0001) // =======================================================
(PID.TID 0000.0001) // Begin MONITOR dynamic field statistics
(PID.TID 0000.0001) // =======================================================
(PID.TID 0000.0001) %MON time_tsnumber                =                 72032
(PID.TID 0000.0001) %MON time_secondsf                =   6.4828800000000E+07
(PID.TID 0000.0001) %MON dynstat_eta_max              =   1.8832980471013E+00
(PID.TID 0000.0001) %MON dynstat_eta_min              =  -2.4675607486718E+00
(PID.TID 0000.0001) %MON dynstat_eta_mean             =   2.1516332067024E-02
(PID.TID 0000.0001) %MON dynstat_eta_sd               =   6.2040045299840E-01
(PID.TID 0000.0001) %MON dynstat_eta_del2             =   2.6200750829428E-03
(PID.TID 0000.0001) %MON dynstat_uvel_max             =   3.4316597163623E-01
(PID.TID 0000.0001) %MON dynstat_uvel_min             =  -9.0897039400799E-01
(PID.TID 0000.0001) %MON dynstat_uvel_mean            =  -1.6910425807162E-04
(PID.TID 0000.0001) %MON dynstat_uvel_sd              =   1.2875857772750E-02
(PID.TID 0000.0001) %MON dynstat_uvel_del2            =   8.4941493622460E-05
(PID.TID 0000.0001) %MON dynstat_vvel_max             =   9.9967264469151E-01
(PID.TID 0000.0001) %MON dynstat_vvel_min             =  -1.1424102954476E+00
(PID.TID 0000.0001) %MON dynstat_vvel_mean            =  -4.3616015717651E-04
(PID.TID 0000.0001) %MON dynstat_vvel_sd              =   1.4068734275432E-02
(PID.TID 0000.0001) %MON dynstat_vvel_del2            =   1.2722641674827E-04
(PID.TID 0000.0001) %MON dynstat_wvel_max             =   1.8978307812987E-04
(PID.TID 0000.0001) %MON dynstat_wvel_min             =  -2.8942259610122E-04
(PID.TID 0000.0001) %MON dynstat_wvel_mean            =  -8.6755520619242E-08
(PID.TID 0000.0001) %MON dynstat_wvel_sd              =   8.4820541126626E-06
(PID.TID 0000.0001) %MON dynstat_wvel_del2            =   7.4610259884695E-08
(PID.TID 0000.0001) %MON dynstat_theta_max            =   3.0922963342203E+01
(PID.TID 0000.0001) %MON dynstat_theta_min            =  -3.0057542970829E+00
(PID.TID 0000.0001) %MON dynstat_theta_mean           =   3.9091261743520E+00
(PID.TID 0000.0001) %MON dynstat_theta_sd             =   4.5713722165683E+00
(PID.TID 0000.0001) %MON dynstat_theta_del2           =   2.6456151831421E-03
(PID.TID 0000.0001) %MON dynstat_salt_max             =   4.1356877473007E+01
(PID.TID 0000.0001) %MON dynstat_salt_min             =   1.8518689738637E+01
(PID.TID 0000.0001) %MON dynstat_salt_mean            =   3.4772025334419E+01
(PID.TID 0000.0001) %MON dynstat_salt_sd              =   5.3147798508347E-01
(PID.TID 0000.0001) %MON dynstat_salt_del2            =   9.3722497860235E-04
(PID.TID 0000.0001) %MON dynstat_sst_max              =   3.0922963342203E+01
(PID.TID 0000.0001) %MON dynstat_sst_min              =  -1.9403985736755E+00
(PID.TID 0000.0001) %MON dynstat_sst_mean             =   1.8108471090129E+01
(PID.TID 0000.0001) %MON dynstat_sst_sd               =   9.8093648853006E+00
(PID.TID 0000.0001) %MON dynstat_sst_del2             =   1.5104428758022E-02
(PID.TID 0000.0001) %MON dynstat_sss_max              =   4.1356877473007E+01
(PID.TID 0000.0001) %MON dynstat_sss_min              =   1.8751399307335E+01
(PID.TID 0000.0001) %MON dynstat_sss_mean             =   3.4629568302392E+01
(PID.TID 0000.0001) %MON dynstat_sss_sd               =   1.4704933776262E+00
(PID.TID 0000.0001) %MON dynstat_sss_del2             =   1.0054750976457E-02
(PID.TID 0000.0001) %MON forcing_qnet_max             =   2.7633639595235E+03
(PID.TID 0000.0001) %MON forcing_qnet_min             =  -4.7307138671875E+03
(PID.TID 0000.0001) %MON forcing_qnet_mean            =  -3.0726762062520E+00
(PID.TID 0000.0001) %MON forcing_qnet_sd              =   2.4998295114544E+02
(PID.TID 0000.0001) %MON forcing_qnet_del2            =   6.3966619210267E+00
(PID.TID 0000.0001) %MON forcing_qsw_max              =   0.0000000000000E+00
(PID.TID 0000.0001) %MON forcing_qsw_min              =  -9.4932485117229E+01
(PID.TID 0000.0001) %MON forcing_qsw_mean             =  -1.5696213349163E+01
(PID.TID 0000.0001) %MON forcing_qsw_sd               =   2.4431379540119E+01
(PID.TID 0000.0001) %MON forcing_qsw_del2             =   1.9808478193680E-01
(PID.TID 0000.0001) %MON forcing_empmr_max            =   8.0465711653233E-03
(PID.TID 0000.0001) %MON forcing_empmr_min            =  -1.1565884202719E-01
(PID.TID 0000.0001) %MON forcing_empmr_mean           =  -3.6520460205320E-04
(PID.TID 0000.0001) %MON forcing_empmr_sd             =   5.3656483583835E-03
(PID.TID 0000.0001) %MON forcing_empmr_del2           =   2.1235981483186E-04
(PID.TID 0000.0001) %MON forcing_fu_max               =   4.2108329110307E-01
(PID.TID 0000.0001) %MON forcing_fu_min               =  -3.7051003243629E-01
(PID.TID 0000.0001) %MON forcing_fu_mean              =  -4.0228990734706E-03
(PID.TID 0000.0001) %MON forcing_fu_sd                =   6.6480320672596E-02
(PID.TID 0000.0001) %MON forcing_fu_del2              =   6.4582875043495E-04
(PID.TID 0000.0001) %MON forcing_fv_max               =   3.2003748015987E-01
(PID.TID 0000.0001) %MON forcing_fv_min               =  -2.9198537016290E-01
(PID.TID 0000.0001) %MON forcing_fv_mean              =  -1.1912217050069E-02
(PID.TID 0000.0001) %MON forcing_fv_sd                =   6.6564091347042E-02
(PID.TID 0000.0001) %MON forcing_fv_del2              =   5.7704080988864E-04
(PID.TID 0000.0001) %MON trAdv_CFL_u_max              =   2.6844273789739E-03
(PID.TID 0000.0001) %MON trAdv_CFL_v_max              =   5.2955519650197E-03
(PID.TID 0000.0001) %MON trAdv_CFL_w_max              =   1.8526471513567E-03
(PID.TID 0000.0001) %MON advcfl_uvel_max              =   2.6753153391506E-03
(PID.TID 0000.0001) %MON advcfl_vvel_max              =   3.7281015113286E-03
(PID.TID 0000.0001) %MON advcfl_wvel_max              =   4.0229162444239E-03
(PID.TID 0000.0001) %MON advcfl_W_hf_max              =   2.4131557639975E-03
(PID.TID 0000.0001) %MON pe_b_mean                    =   5.1336734383726E-04
(PID.TID 0000.0001) %MON ke_max                       =   4.3938404814765E-01
(PID.TID 0000.0001) %MON ke_mean                      =   1.6809308163631E-04
(PID.TID 0000.0001) %MON ke_vol                       =   1.3398101593114E+18
(PID.TID 0000.0001) %MON vort_r_min                   =  -5.6694068951017E-06
(PID.TID 0000.0001) %MON vort_r_max                   =   3.2995901800073E-06
(PID.TID 0000.0001) %MON vort_a_mean                  =  -2.0549865324846E-05
(PID.TID 0000.0001) %MON vort_a_sd                    =   7.5259498926342E-05
(PID.TID 0000.0001) %MON vort_p_mean                  =  -2.4783327563465E-05
(PID.TID 0000.0001) %MON vort_p_sd                    =   1.2811903064832E-04
(PID.TID 0000.0001) %MON surfExpan_theta_mean         =  -6.8704131899432E-06
(PID.TID 0000.0001) %MON surfExpan_salt_mean          =   1.0629143880480E-06
(PID.TID 0000.0001) // =======================================================
(PID.TID 0000.0001) // End MONITOR dynamic field statistics
(PID.TID 0000.0001) // =======================================================
(PID.TID 0000.0001) // =======================================================
(PID.TID 0000.0001) // Begin MONITOR SEAICE statistics
(PID.TID 0000.0001) // =======================================================
(PID.TID 0000.0001) %MON seaice_tsnumber              =                 72032
(PID.TID 0000.0001) %MON seaice_time_sec              =   6.4828800000000E+07
(PID.TID 0000.0001) %MON seaice_uice_max              =   2.6422455546394E-01
(PID.TID 0000.0001) %MON seaice_uice_min              =  -8.4752409931530E-01
(PID.TID 0000.0001) %MON seaice_uice_mean             =  -6.2049054294401E-03
(PID.TID 0000.0001) %MON seaice_uice_sd               =   5.7513378409280E-02
(PID.TID 0000.0001) %MON seaice_uice_del2             =   8.6740662280476E-04
(PID.TID 0000.0001) %MON seaice_vice_max              =   8.2133946905586E-01
(PID.TID 0000.0001) %MON seaice_vice_min              =  -1.0026195520877E+00
(PID.TID 0000.0001) %MON seaice_vice_mean             =  -1.4364843210328E-02
(PID.TID 0000.0001) %MON seaice_vice_sd               =   6.4002635788003E-02
(PID.TID 0000.0001) %MON seaice_vice_del2             =   1.3271987956780E-03
(PID.TID 0000.0001) %MON seaice_area_max              =   1.0000000000000E+00
(PID.TID 0000.0001) %MON seaice_area_min              =   0.0000000000000E+00
(PID.TID 0000.0001) %MON seaice_area_mean             =   6.9221078458201E-02
(PID.TID 0000.0001) %MON seaice_area_sd               =   2.3780315149024E-01
(PID.TID 0000.0001) %MON seaice_area_del2             =   1.7695066203066E-03
(PID.TID 0000.0001) %MON seaice_heff_max              =   8.5101665880043E+00
(PID.TID 0000.0001) %MON seaice_heff_min              =   0.0000000000000E+00
(PID.TID 0000.0001) %MON seaice_heff_mean             =   2.0612417400220E-01
(PID.TID 0000.0001) %MON seaice_heff_sd               =   9.7957098122135E-01
(PID.TID 0000.0001) %MON seaice_heff_del2             =   6.2390612625262E-03
(PID.TID 0000.0001) %MON seaice_hsnow_max             =   2.0317727306968E+00
(PID.TID 0000.0001) %MON seaice_hsnow_min             =   0.0000000000000E+00
(PID.TID 0000.0001) %MON seaice_hsnow_mean            =   2.2758012995349E-02
(PID.TID 0000.0001) %MON seaice_hsnow_sd              =   1.1951496810242E-01
(PID.TID 0000.0001) %MON seaice_hsnow_del2            =   1.4639915145135E-03
(PID.TID 0000.0001) // =======================================================
(PID.TID 0000.0001) // End MONITOR SEAICE statistics
(PID.TID 0000.0001) // =======================================================
 Compute Stats, Diag. #    211  SIarea    vol(   0 ): 1.456E+15  Parms: SM      M1      
 Compute Stats, Diag. #    214  SIheff    vol(   0 ): 1.456E+15  Parms: SM      M1      
 Compute Stats, Diag. #    216  SIhsnow   vol(   0 ): 1.456E+15  Parms: SM      M1      
 Compute Stats, Diag. #     83  sIceLoad  vol(   0 ): 1.456E+15  Parms: SM      U1      
 Compute Stats, Diag. #    220  SIuice    vol(   0 ): 1.383E+15  Parms: UU      M1      
 Compute Stats, Diag. #    221  SIvice    vol(   0 ): 1.391E+15  Parms: VV      M1      
 Compute Stats, Diag. #    222  SItaux    vol(   0 ): 1.383E+15  Parms: UU      U1      
 Compute Stats, Diag. #    223  SItauy    vol(   0 ): 1.391E+15  Parms: VV      U1      
 SEAICE_LSR: Residual Initial ipass,Uice,Vice=    1  5.12325633E-03  2.70420346E-03
 SEAICE_LSR (ipass=   1) iters,dU,Resid=     6  5.42433957E-05  1.49660055E-04
 SEAICE_LSR (ipass=   1) iters,dV,Resid=     6  3.54497578E-06  1.90660819E-05
 SEAICE_LSR: Residual Initial ipass,Uice,Vice=    2  3.48348339E-03  1.54901446E-03
 SEAICE_LSR (ipass=   2) iters,dU,Resid=     6  3.33276603E-05  1.31826671E-04
 SEAICE_LSR (ipass=   2) iters,dV,Resid=     6  2.90337037E-06  1.75292002E-05
 cg2d: Sum(rhs),rhsMax =  -4.55683683143709E+01  4.12251360958685E+01
(PID.TID 0000.0001)      cg2d_init_res =   4.00049110328415E-01
(PID.TID 0000.0001)      cg2d_iters(min,last) =      -1      11
(PID.TID 0000.0001)      cg2d_last_res =   3.58045187517762E-08
(PID.TID 0000.0001) // =======================================================
(PID.TID 0000.0001) // Begin MONITOR dynamic field statistics
(PID.TID 0000.0001) // =======================================================
(PID.TID 0000.0001) %MON time_tsnumber                =                 72033
(PID.TID 0000.0001) %MON time_secondsf                =   6.4829700000000E+07
(PID.TID 0000.0001) %MON dynstat_eta_max              =   1.8613148227566E+00
(PID.TID 0000.0001) %MON dynstat_eta_min              =  -2.0084252416482E+00
(PID.TID 0000.0001) %MON dynstat_eta_mean             =   2.1828643552395E-02
(PID.TID 0000.0001) %MON dynstat_eta_sd               =   6.1990768437952E-01
(PID.TID 0000.0001) %MON dynstat_eta_del2             =   2.4592474349040E-03
(PID.TID 0000.0001) %MON dynstat_uvel_max             =   3.1998998073599E-01
(PID.TID 0000.0001) %MON dynstat_uvel_min             =  -9.3114484727493E-01
(PID.TID 0000.0001) %MON dynstat_uvel_mean            =  -2.0600575145502E-04
(PID.TID 0000.0001) %MON dynstat_uvel_sd              =   1.2909951253153E-02
(PID.TID 0000.0001) %MON dynstat_uvel_del2            =   8.5360694958643E-05
(PID.TID 0000.0001) %MON dynstat_vvel_max             =   1.0571080905027E+00
(PID.TID 0000.0001) %MON dynstat_vvel_min             =  -1.1648364312860E+00
(PID.TID 0000.0001) %MON dynstat_vvel_mean            =  -4.2453944093266E-04
(PID.TID 0000.0001) %MON dynstat_vvel_sd              =   1.4053788028214E-02
(PID.TID 0000.0001) %MON dynstat_vvel_del2            =   1.2804578524360E-04
(PID.TID 0000.0001) %MON dynstat_wvel_max             =   1.9651508174438E-04
(PID.TID 0000.0001) %MON dynstat_wvel_min             =  -2.6679025606487E-04
(PID.TID 0000.0001) %MON dynstat_wvel_mean            =  -6.5903765083630E-08
(PID.TID 0000.0001) %MON dynstat_wvel_sd              =   8.4630580851999E-06
(PID.TID 0000.0001) %MON dynstat_wvel_del2            =   7.4522773245645E-08
(PID.TID 0000.0001) %MON dynstat_theta_max            =   3.0923109589395E+01
(PID.TID 0000.0001) %MON dynstat_theta_min            =  -3.0056718153039E+00
(PID.TID 0000.0001) %MON dynstat_theta_mean           =   3.9091279384196E+00
(PID.TID 0000.0001) %MON dynstat_theta_sd             =   4.5713797446035E+00
(PID.TID 0000.0001) %MON dynstat_theta_del2           =   2.6454807552123E-03
(PID.TID 0000.0001) %MON dynstat_salt_max             =   4.1356560508962E+01
(PID.TID 0000.0001) %MON dynstat_salt_min             =   1.8518700070999E+01
(PID.TID 0000.0001) %MON dynstat_salt_mean            =   3.4772021617698E+01
(PID.TID 0000.0001) %MON dynstat_salt_sd              =   5.3149745415910E-01
(PID.TID 0000.0001) %MON dynstat_salt_del2            =   9.4258576256983E-04
(PID.TID 0000.0001) %MON dynstat_sst_max              =   3.0923109589395E+01
(PID.TID 0000.0001) %MON dynstat_sst_min              =  -1.9402044693494E+00
(PID.TID 0000.0001) %MON dynstat_sst_mean             =   1.8108489881498E+01
(PID.TID 0000.0001) %MON dynstat_sst_sd               =   9.8094981485645E+00
(PID.TID 0000.0001) %MON dynstat_sst_del2             =   1.5101736051959E-02
(PID.TID 0000.0001) %MON dynstat_sss_max              =   4.1356560508962E+01
(PID.TID 0000.0001) %MON dynstat_sss_min              =   1.8751403004444E+01
(PID.TID 0000.0001) %MON dynstat_sss_mean             =   3.4629301830059E+01
(PID.TID 0000.0001) %MON dynstat_sss_sd               =   1.4709844500562E+00
(PID.TID 0000.0001) %MON dynstat_sss_del2             =   1.0133588816838E-02
(PID.TID 0000.0001) %MON forcing_qnet_max             =   2.7254648036515E+03
(PID.TID 0000.0001) %MON forcing_qnet_min             =  -1.7146714733473E+03
(PID.TID 0000.0001) %MON forcing_qnet_mean            =   2.9140679705378E+00
(PID.TID 0000.0001) %MON forcing_qnet_sd              =   2.3529637978940E+02
(PID.TID 0000.0001) %MON forcing_qnet_del2            =   5.3265221085001E+00
(PID.TID 0000.0001) %MON forcing_qsw_max              =   0.0000000000000E+00
(PID.TID 0000.0001) %MON forcing_qsw_min              =  -9.9775219329109E+01
(PID.TID 0000.0001) %MON forcing_qsw_mean             =  -1.5131212115756E+01
(PID.TID 0000.0001) %MON forcing_qsw_sd               =   2.4363741624658E+01
(PID.TID 0000.0001) %MON forcing_qsw_del2             =   1.9002360402276E-01
(PID.TID 0000.0001) %MON forcing_empmr_max            =   7.9636173322797E-03
(PID.TID 0000.0001) %MON forcing_empmr_min            =  -1.1446733772755E-01
(PID.TID 0000.0001) %MON forcing_empmr_mean           =  -3.5915820817675E-04
(PID.TID 0000.0001) %MON forcing_empmr_sd             =   5.2860091955896E-03
(PID.TID 0000.0001) %MON forcing_empmr_del2           =   2.0914147116686E-04
(PID.TID 0000.0001) %MON forcing_fu_max               =   4.1095126889142E-01
(PID.TID 0000.0001) %MON forcing_fu_min               =  -3.6943236254752E-01
(PID.TID 0000.0001) %MON forcing_fu_mean              =  -3.9853722867203E-03
(PID.TID 0000.0001) %MON forcing_fu_sd                =   6.5849254478524E-02
(PID.TID 0000.0001) %MON forcing_fu_del2              =   6.3969317492951E-04
(PID.TID 0000.0001) %MON forcing_fv_max               =   3.2065815338976E-01
(PID.TID 0000.0001) %MON forcing_fv_min               =  -2.8982554988954E-01
(PID.TID 0000.0001) %MON forcing_fv_mean              =  -1.2039821731082E-02
(PID.TID 0000.0001) %MON forcing_fv_sd                =   6.6375464134629E-02
(PID.TID 0000.0001) %MON forcing_fv_del2              =   5.7457214902143E-04
(PID.TID 0000.0001) %MON trAdv_CFL_u_max              =   2.7537318744239E-03
(PID.TID 0000.0001) %MON trAdv_CFL_v_max              =   5.3267769504072E-03
(PID.TID 0000.0001) %MON trAdv_CFL_w_max              =   1.8041910495237E-03
(PID.TID 0000.0001) %MON advcfl_uvel_max              =   2.7405800115243E-03
(PID.TID 0000.0001) %MON advcfl_vvel_max              =   3.8012861729564E-03
(PID.TID 0000.0001) %MON advcfl_wvel_max              =   3.9814726166103E-03
(PID.TID 0000.0001) %MON advcfl_W_hf_max              =   2.5209071836676E-03
(PID.TID 0000.0001) %MON pe_b_mean                    =   5.1257112690701E-04
(PID.TID 0000.0001) %MON ke_max                       =   4.8433833388033E-01
(PID.TID 0000.0001) %MON ke_mean                      =   1.6830366521218E-04
(PID.TID 0000.0001) %MON ke_vol                       =   1.3398102748706E+18
(PID.TID 0000.0001) %MON vort_r_min                   =  -5.5729848074892E-06
(PID.TID 0000.0001) %MON vort_r_max                   =   3.4891656715339E-06
(PID.TID 0000.0001) %MON vort_a_mean                  =  -2.0549865324846E-05
(PID.TID 0000.0001) %MON vort_a_sd                    =   7.5259500312743E-05
(PID.TID 0000.0001) %MON vort_p_mean                  =  -2.4783325627969E-05
(PID.TID 0000.0001) %MON vort_p_sd                    =   1.2811904022866E-04
(PID.TID 0000.0001) %MON surfExpan_theta_mean         =  -6.8272822027523E-06
(PID.TID 0000.0001) %MON surfExpan_salt_mean          =   1.0286642032357E-06
(PID.TID 0000.0001) // =======================================================
(PID.TID 0000.0001) // End MONITOR dynamic field statistics
(PID.TID 0000.0001) // =======================================================
(PID.TID 0000.0001) // =======================================================
(PID.TID 0000.0001) // Begin MONITOR SEAICE statistics
(PID.TID 0000.0001) // =======================================================
(PID.TID 0000.0001) %MON seaice_tsnumber              =                 72033
(PID.TID 0000.0001) %MON seaice_time_sec              =   6.4829700000000E+07
(PID.TID 0000.0001) %MON seaice_uice_max              =   2.6308972267276E-01
(PID.TID 0000.0001) %MON seaice_uice_min              =  -8.7399575678226E-01
(PID.TID 0000.0001) %MON seaice_uice_mean             =  -6.3588286975240E-03
(PID.TID 0000.0001) %MON seaice_uice_sd               =   5.7712601927029E-02
(PID.TID 0000.0001) %MON seaice_uice_del2             =   8.7024493649157E-04
(PID.TID 0000.0001) %MON seaice_vice_max              =   8.9692811698116E-01
(PID.TID 0000.0001) %MON seaice_vice_min              =  -1.0373701670726E+00
(PID.TID 0000.0001) %MON seaice_vice_mean             =  -1.4457726460178E-02
(PID.TID 0000.0001) %MON seaice_vice_sd               =   6.4115380384610E-02
(PID.TID 0000.0001) %MON seaice_vice_del2             =   1.3489572138252E-03
(PID.TID 0000.0001) %MON seaice_area_max              =   1.0000000000000E+00
(PID.TID 0000.0001) %MON seaice_area_min              =   0.0000000000000E+00
(PID.TID 0000.0001) %MON seaice_area_mean             =   6.9216843538451E-02
(PID.TID 0000.0001) %MON seaice_area_sd               =   2.3778847100246E-01
(PID.TID 0000.0001) %MON seaice_area_del2             =   1.7685962399434E-03
(PID.TID 0000.0001) %MON seaice_heff_max              =   8.5116708965819E+00
(PID.TID 0000.0001) %MON seaice_heff_min              =   0.0000000000000E+00
(PID.TID 0000.0001) %MON seaice_heff_mean             =   2.0612761324116E-01
(PID.TID 0000.0001) %MON seaice_heff_sd               =   9.7961859453900E-01
(PID.TID 0000.0001) %MON seaice_heff_del2             =   6.2392040603899E-03
(PID.TID 0000.0001) %MON seaice_hsnow_max             =   2.0317699426780E+00
(PID.TID 0000.0001) %MON seaice_hsnow_min             =   0.0000000000000E+00
(PID.TID 0000.0001) %MON seaice_hsnow_mean            =   2.2757052673214E-02
(PID.TID 0000.0001) %MON seaice_hsnow_sd              =   1.1951197075031E-01
(PID.TID 0000.0001) %MON seaice_hsnow_del2            =   1.4639146546050E-03
(PID.TID 0000.0001) // =======================================================
(PID.TID 0000.0001) // End MONITOR SEAICE statistics
(PID.TID 0000.0001) // =======================================================
 Computing Diagnostic #    211  SIarea       Counter:       1   Parms: SM      M1      
 Computing Diagnostic #    214  SIheff       Counter:       1   Parms: SM      M1      
 Computing Diagnostic #    216  SIhsnow      Counter:       1   Parms: SM      M1      
 Computing Diagnostic #     83  sIceLoad     Counter:       1   Parms: SM      U1      
 Computing Diagnostic #    220  SIuice       Counter:       1   Parms: UU      M1      
           Vector  Mate for  SIuice       Diagnostic #    221  SIvice   exists 
 Computing Diagnostic #    221  SIvice       Counter:       1   Parms: VV      M1      
           Vector  Mate for  SIvice       Diagnostic #    220  SIuice   exists 
 Computing Diagnostic #    222  SItaux       Counter:       1   Parms: UU      U1      
           Vector  Mate for  SItaux       Diagnostic #    223  SItauy   exists 
 Computing Diagnostic #    223  SItauy       Counter:       1   Parms: VV      U1      
           Vector  Mate for  SItauy       Diagnostic #    222  SItaux   exists 
 Computing Diagnostic #      1  SDIAG1       Counter:       1   Parms: SM      L1      
 Computing Diagnostic #    282  SIareaN      Counter:       1   Parms: SM      MX      
 Computing Diagnostic #    281  SIheffN      Counter:       1   Parms: SM      MX      
 Computing Diagnostic #    283  SIhsnowN     Counter:       1   Parms: SM      MX      
 SEAICE_LSR: Residual Initial ipass,Uice,Vice=    1  4.90658314E-03  2.51250935E-03
 SEAICE_LSR (ipass=   1) iters,dU,Resid=     6  3.55582067E-05  1.35131890E-04
 SEAICE_LSR (ipass=   1) iters,dV,Resid=     6  3.18753944E-06  1.93010508E-05
 SEAICE_LSR: Residual Initial ipass,Uice,Vice=    2  3.38379277E-03  1.55047476E-03
 SEAICE_LSR (ipass=   2) iters,dU,Resid=     6  1.99341804E-05  1.19061185E-04
 SEAICE_LSR (ipass=   2) iters,dV,Resid=     6  2.84393340E-06  1.71673439E-05
 cg2d: Sum(rhs),rhsMax =  -4.46948336547395E+01  4.26238781386934E+01
(PID.TID 0000.0001)      cg2d_init_res =   3.86423075937028E-01
(PID.TID 0000.0001)      cg2d_iters(min,last) =      -1      11
(PID.TID 0000.0001)      cg2d_last_res =   3.55038603053556E-08
(PID.TID 0000.0001) // =======================================================
(PID.TID 0000.0001) // Begin MONITOR dynamic field statistics
(PID.TID 0000.0001) // =======================================================
(PID.TID 0000.0001) %MON time_tsnumber                =                 72034
(PID.TID 0000.0001) %MON time_secondsf                =   6.4830600000000E+07
(PID.TID 0000.0001) %MON dynstat_eta_max              =   1.9047125564319E+00
(PID.TID 0000.0001) %MON dynstat_eta_min              =  -1.6072726010875E+00
(PID.TID 0000.0001) %MON dynstat_eta_mean             =   2.2136627647114E-02
(PID.TID 0000.0001) %MON dynstat_eta_sd               =   6.1944164669069E-01
(PID.TID 0000.0001) %MON dynstat_eta_del2             =   2.3166088598646E-03
(PID.TID 0000.0001) %MON dynstat_uvel_max             =   2.9743898513997E-01
(PID.TID 0000.0001) %MON dynstat_uvel_min             =  -9.4677795097181E-01
(PID.TID 0000.0001) %MON dynstat_uvel_mean            =  -2.4320184204804E-04
(PID.TID 0000.0001) %MON dynstat_uvel_sd              =   1.2944089479900E-02
(PID.TID 0000.0001) %MON dynstat_uvel_del2            =   8.5772574969407E-05
(PID.TID 0000.0001) %MON dynstat_vvel_max             =   1.0980508070963E+00
(PID.TID 0000.0001) %MON dynstat_vvel_min             =  -1.1686517744510E+00
(PID.TID 0000.0001) %MON dynstat_vvel_mean            =  -4.0872454798221E-04
(PID.TID 0000.0001) %MON dynstat_vvel_sd              =   1.4027086766151E-02
(PID.TID 0000.0001) %MON dynstat_vvel_del2            =   1.2825234905504E-04
(PID.TID 0000.0001) %MON dynstat_wvel_max             =   2.0427396487560E-04
(PID.TID 0000.0001) %MON dynstat_wvel_min             =  -2.4695847068611E-04
(PID.TID 0000.0001) %MON dynstat_wvel_mean            =  -4.7272507145827E-08
(PID.TID 0000.0001) %MON dynstat_wvel_sd              =   8.4331508770332E-06
(PID.TID 0000.0001) %MON dynstat_wvel_del2            =   7.4460550621304E-08
(PID.TID 0000.0001) %MON dynstat_theta_max            =   3.0923263379847E+01
(PID.TID 0000.0001) %MON dynstat_theta_min            =  -3.0055714574532E+00
(PID.TID 0000.0001) %MON dynstat_theta_mean           =   3.9091295087828E+00
(PID.TID 0000.0001) %MON dynstat_theta_sd             =   4.5713865093231E+00
(PID.TID 0000.0001) %MON dynstat_theta_del2           =   2.6453479875409E-03
(PID.TID 0000.0001) %MON dynstat_salt_max             =   4.1356247559941E+01
(PID.TID 0000.0001) %MON dynstat_salt_min             =   1.8518710448170E+01
(PID.TID 0000.0001) %MON dynstat_salt_mean            =   3.4772017969063E+01
(PID.TID 0000.0001) %MON dynstat_salt_sd              =   5.3151679154929E-01
(PID.TID 0000.0001) %MON dynstat_salt_del2            =   9.4790235857074E-04
(PID.TID 0000.0001) %MON dynstat_sst_max              =   3.0923263379847E+01
(PID.TID 0000.0001) %MON dynstat_sst_min              =  -1.9400091899656E+00
(PID.TID 0000.0001) %MON dynstat_sst_mean             =   1.8108496899979E+01
(PID.TID 0000.0001) %MON dynstat_sst_sd               =   9.8096253144562E+00
(PID.TID 0000.0001) %MON dynstat_sst_del2             =   1.5099104869828E-02
(PID.TID 0000.0001) %MON dynstat_sss_max              =   4.1356247559941E+01
(PID.TID 0000.0001) %MON dynstat_sss_min              =   1.8751407144404E+01
(PID.TID 0000.0001) %MON dynstat_sss_mean             =   3.4629040727753E+01
(PID.TID 0000.0001) %MON dynstat_sss_sd               =   1.4714718937678E+00
(PID.TID 0000.0001) %MON dynstat_sss_del2             =   1.0211609260181E-02
(PID.TID 0000.0001) %MON forcing_qnet_max             =   2.6878620048882E+03
(PID.TID 0000.0001) %MON forcing_qnet_min             =  -1.7445155029297E+03
(PID.TID 0000.0001) %MON forcing_qnet_mean            =   5.7418758328649E+00
(PID.TID 0000.0001) %MON forcing_qnet_sd              =   2.3406865885674E+02
(PID.TID 0000.0001) %MON forcing_qnet_del2            =   5.3908126860212E+00
(PID.TID 0000.0001) %MON forcing_qsw_max              =   0.0000000000000E+00
(PID.TID 0000.0001) %MON forcing_qsw_min              =  -1.0076711111013E+02
(PID.TID 0000.0001) %MON forcing_qsw_mean             =  -1.4948213450411E+01
(PID.TID 0000.0001) %MON forcing_qsw_sd               =   2.4455464095468E+01
(PID.TID 0000.0001) %MON forcing_qsw_del2             =   1.8696722441233E-01
(PID.TID 0000.0001) %MON forcing_empmr_max            =   7.8814504668117E-03
(PID.TID 0000.0001) %MON forcing_empmr_min            =  -1.1328842490911E-01
(PID.TID 0000.0001) %MON forcing_empmr_mean           =  -3.5418170892723E-04
(PID.TID 0000.0001) %MON forcing_empmr_sd             =   5.2116537564211E-03
(PID.TID 0000.0001) %MON forcing_empmr_del2           =   2.0622582909327E-04
(PID.TID 0000.0001) %MON forcing_fu_max               =   4.0219370327528E-01
(PID.TID 0000.0001) %MON forcing_fu_min               =  -3.6891819681200E-01
(PID.TID 0000.0001) %MON forcing_fu_mean              =  -3.9737181310684E-03
(PID.TID 0000.0001) %MON forcing_fu_sd                =   6.5225131928806E-02
(PID.TID 0000.0001) %MON forcing_fu_del2              =   6.3439750380298E-04
(PID.TID 0000.0001) %MON forcing_fv_max               =   3.2033314212227E-01
(PID.TID 0000.0001) %MON forcing_fv_min               =  -2.8679407860739E-01
(PID.TID 0000.0001) %MON forcing_fv_mean              =  -1.2191197872542E-02
(PID.TID 0000.0001) %MON forcing_fv_sd                =   6.6125230107021E-02
(PID.TID 0000.0001) %MON forcing_fv_del2              =   5.7128402475184E-04
(PID.TID 0000.0001) %MON trAdv_CFL_u_max              =   2.8043251904547E-03
(PID.TID 0000.0001) %MON trAdv_CFL_v_max              =   5.2909032259592E-03
(PID.TID 0000.0001) %MON trAdv_CFL_w_max              =   1.8260288640329E-03
(PID.TID 0000.0001) %MON advcfl_uvel_max              =   2.7865919414997E-03
(PID.TID 0000.0001) %MON advcfl_vvel_max              =   3.8137370294273E-03
(PID.TID 0000.0001) %MON advcfl_wvel_max              =   3.9404669533605E-03
(PID.TID 0000.0001) %MON advcfl_W_hf_max              =   2.6086126629041E-03
(PID.TID 0000.0001) %MON pe_b_mean                    =   5.1181967851699E-04
(PID.TID 0000.0001) %MON ke_max                       =   5.1493405204308E-01
(PID.TID 0000.0001) %MON ke_mean                      =   1.6836281837620E-04
(PID.TID 0000.0001) %MON ke_vol                       =   1.3398103885166E+18
(PID.TID 0000.0001) %MON vort_r_min                   =  -5.4322855638405E-06
(PID.TID 0000.0001) %MON vort_r_max                   =   3.6243040954293E-06
(PID.TID 0000.0001) %MON vort_a_mean                  =  -2.0549865324846E-05
(PID.TID 0000.0001) %MON vort_a_sd                    =   7.5259502816860E-05
(PID.TID 0000.0001) %MON vort_p_mean                  =  -2.4783323748223E-05
(PID.TID 0000.0001) %MON vort_p_sd                    =   1.2811905339544E-04
(PID.TID 0000.0001) %MON surfExpan_theta_mean         =  -6.7660897738980E-06
(PID.TID 0000.0001) %MON surfExpan_salt_mean          =   9.9880848666470E-07
(PID.TID 0000.0001) // =======================================================
(PID.TID 0000.0001) // End MONITOR dynamic field statistics
(PID.TID 0000.0001) // =======================================================
(PID.TID 0000.0001) // =======================================================
(PID.TID 0000.0001) // Begin MONITOR SEAICE statistics
(PID.TID 0000.0001) // =======================================================
(PID.TID 0000.0001) %MON seaice_tsnumber              =                 72034
(PID.TID 0000.0001) %MON seaice_time_sec              =   6.4830600000000E+07
(PID.TID 0000.0001) %MON seaice_uice_max              =   2.6146749351207E-01
(PID.TID 0000.0001) %MON seaice_uice_min              =  -8.9442548724421E-01
(PID.TID 0000.0001) %MON seaice_uice_mean             =  -6.4906713214850E-03
(PID.TID 0000.0001) %MON seaice_uice_sd               =   5.7927049904722E-02
(PID.TID 0000.0001) %MON seaice_uice_del2             =   8.7508238830649E-04
(PID.TID 0000.0001) %MON seaice_vice_max              =   9.5568030111105E-01
(PID.TID 0000.0001) %MON seaice_vice_min              =  -1.0532045442353E+00
(PID.TID 0000.0001) %MON seaice_vice_mean             =  -1.4551748577374E-02
(PID.TID 0000.0001) %MON seaice_vice_sd               =   6.4098438679329E-02
(PID.TID 0000.0001) %MON seaice_vice_del2             =   1.3618316179127E-03
(PID.TID 0000.0001) %MON seaice_area_max              =   1.0000000000000E+00
(PID.TID 0000.0001) %MON seaice_area_min              =   0.0000000000000E+00
(PID.TID 0000.0001) %MON seaice_area_mean             =   6.9212478996664E-02
(PID.TID 0000.0001) %MON seaice_area_sd               =   2.3777363005378E-01
(PID.TID 0000.0001) %MON seaice_area_del2             =   1.7676636223990E-03
(PID.TID 0000.0001) %MON seaice_heff_max              =   8.5131321742632E+00
(PID.TID 0000.0001) %MON seaice_heff_min              =   0.0000000000000E+00
(PID.TID 0000.0001) %MON seaice_heff_mean             =   2.0613051845868E-01
(PID.TID 0000.0001) %MON seaice_heff_sd               =   9.7966388005113E-01
(PID.TID 0000.0001) %MON seaice_heff_del2             =   6.2393376150807E-03
(PID.TID 0000.0001) %MON seaice_hsnow_max             =   2.0317692309336E+00
(PID.TID 0000.0001) %MON seaice_hsnow_min             =   0.0000000000000E+00
(PID.TID 0000.0001) %MON seaice_hsnow_mean            =   2.2756152626900E-02
(PID.TID 0000.0001) %MON seaice_hsnow_sd              =   1.1950892995159E-01
(PID.TID 0000.0001) %MON seaice_hsnow_del2            =   1.4638363915735E-03
(PID.TID 0000.0001) // =======================================================
(PID.TID 0000.0001) // End MONITOR SEAICE statistics
(PID.TID 0000.0001) // =======================================================
 SEAICE_LSR: Residual Initial ipass,Uice,Vice=    1  4.70491378E-03  2.39647262E-03
 SEAICE_LSR (ipass=   1) iters,dU,Resid=     6  3.18655358E-05  1.21769885E-04
 SEAICE_LSR (ipass=   1) iters,dV,Resid=     6  3.59614978E-06  1.98864780E-05
 SEAICE_LSR: Residual Initial ipass,Uice,Vice=    2  3.37262399E-03  1.58902660E-03
 SEAICE_LSR (ipass=   2) iters,dU,Resid=     4  7.89282953E-05  1.68077917E-04
 SEAICE_LSR (ipass=   2) iters,dV,Resid=     4  1.76702064E-05  3.71831966E-05
 cg2d: Sum(rhs),rhsMax =  -4.22485127017986E+01  4.57106537833489E+01
(PID.TID 0000.0001)      cg2d_init_res =   3.57386911577170E-01
(PID.TID 0000.0001)      cg2d_iters(min,last) =      -1      11
(PID.TID 0000.0001)      cg2d_last_res =   3.26108888194334E-08
(PID.TID 0000.0001) // =======================================================
(PID.TID 0000.0001) // Begin MONITOR dynamic field statistics
(PID.TID 0000.0001) // =======================================================
(PID.TID 0000.0001) %MON time_tsnumber                =                 72035
(PID.TID 0000.0001) %MON time_secondsf                =   6.4831500000000E+07
(PID.TID 0000.0001) %MON dynstat_eta_max              =   2.0416786891716E+00
(PID.TID 0000.0001) %MON dynstat_eta_min              =  -1.6073397651747E+00
(PID.TID 0000.0001) %MON dynstat_eta_mean             =   2.2440370910191E-02
(PID.TID 0000.0001) %MON dynstat_eta_sd               =   6.1901872885927E-01
(PID.TID 0000.0001) %MON dynstat_eta_del2             =   2.1977269348197E-03
(PID.TID 0000.0001) %MON dynstat_uvel_max             =   3.1053643646404E-01
(PID.TID 0000.0001) %MON dynstat_uvel_min             =  -9.5540818924600E-01
(PID.TID 0000.0001) %MON dynstat_uvel_mean            =  -2.7992977676494E-04
(PID.TID 0000.0001) %MON dynstat_uvel_sd              =   1.2975252902649E-02
(PID.TID 0000.0001) %MON dynstat_uvel_del2            =   8.6132766890429E-05
(PID.TID 0000.0001) %MON dynstat_vvel_max             =   1.1227965792597E+00
(PID.TID 0000.0001) %MON dynstat_vvel_min             =  -1.1543289462707E+00
(PID.TID 0000.0001) %MON dynstat_vvel_mean            =  -3.8851854516861E-04
(PID.TID 0000.0001) %MON dynstat_vvel_sd              =   1.3990824508607E-02
(PID.TID 0000.0001) %MON dynstat_vvel_del2            =   1.2784784614595E-04
(PID.TID 0000.0001) %MON dynstat_wvel_max             =   2.0907204864274E-04
(PID.TID 0000.0001) %MON dynstat_wvel_min             =  -2.3006278200783E-04
(PID.TID 0000.0001) %MON dynstat_wvel_mean            =  -3.2058433695297E-08
(PID.TID 0000.0001) %MON dynstat_wvel_sd              =   8.3924575811635E-06
(PID.TID 0000.0001) %MON dynstat_wvel_del2            =   7.4414649761359E-08
(PID.TID 0000.0001) %MON dynstat_theta_max            =   3.0923423773329E+01
(PID.TID 0000.0001) %MON dynstat_theta_min            =  -3.0054548997378E+00
(PID.TID 0000.0001) %MON dynstat_theta_mean           =   3.9091309214128E+00
(PID.TID 0000.0001) %MON dynstat_theta_sd             =   4.5713926358953E+00
(PID.TID 0000.0001) %MON dynstat_theta_del2           =   2.6452167343695E-03
(PID.TID 0000.0001) %MON dynstat_salt_max             =   4.1355936572221E+01
(PID.TID 0000.0001) %MON dynstat_salt_min             =   1.8518720859974E+01
(PID.TID 0000.0001) %MON dynstat_salt_mean            =   3.4772014392164E+01
(PID.TID 0000.0001) %MON dynstat_salt_sd              =   5.3153596685755E-01
(PID.TID 0000.0001) %MON dynstat_salt_del2            =   9.5317060382816E-04
(PID.TID 0000.0001) %MON dynstat_sst_max              =   3.0923423773329E+01
(PID.TID 0000.0001) %MON dynstat_sst_min              =  -1.9398140923204E+00
(PID.TID 0000.0001) %MON dynstat_sst_mean             =   1.8108494896910E+01
(PID.TID 0000.0001) %MON dynstat_sst_sd               =   9.8097465506613E+00
(PID.TID 0000.0001) %MON dynstat_sst_del2             =   1.5096526745163E-02
(PID.TID 0000.0001) %MON dynstat_sss_max              =   4.1355936572221E+01
(PID.TID 0000.0001) %MON dynstat_sss_min              =   1.8751412100075E+01
(PID.TID 0000.0001) %MON dynstat_sss_mean             =   3.4628785373128E+01
(PID.TID 0000.0001) %MON dynstat_sss_sd               =   1.4719549683807E+00
(PID.TID 0000.0001) %MON dynstat_sss_del2             =   1.0288757512274E-02
(PID.TID 0000.0001) %MON forcing_qnet_max             =   2.6507662818068E+03
(PID.TID 0000.0001) %MON forcing_qnet_min             =  -1.7956704101562E+03
(PID.TID 0000.0001) %MON forcing_qnet_mean            =   8.0238836654175E+00
(PID.TID 0000.0001) %MON forcing_qnet_sd              =   2.3267579693650E+02
(PID.TID 0000.0001) %MON forcing_qnet_del2            =   5.2706838003849E+00
(PID.TID 0000.0001) %MON forcing_qsw_max              =   0.0000000000000E+00
(PID.TID 0000.0001) %MON forcing_qsw_min              =  -1.0134285069275E+02
(PID.TID 0000.0001) %MON forcing_qsw_mean             =  -1.4732058190685E+01
(PID.TID 0000.0001) %MON forcing_qsw_sd               =   2.4517297479214E+01
(PID.TID 0000.0001) %MON forcing_qsw_del2             =   1.8349127824983E-01
(PID.TID 0000.0001) %MON forcing_empmr_max            =   7.8002670779824E-03
(PID.TID 0000.0001) %MON forcing_empmr_min            =  -1.1212125420570E-01
(PID.TID 0000.0001) %MON forcing_empmr_mean           =  -3.4930475253861E-04
(PID.TID 0000.0001) %MON forcing_empmr_sd             =   5.1288251181664E-03
(PID.TID 0000.0001) %MON forcing_empmr_del2           =   2.0299745442410E-04
(PID.TID 0000.0001) %MON forcing_fu_max               =   3.9692489826718E-01
(PID.TID 0000.0001) %MON forcing_fu_min               =  -3.6834815422029E-01
(PID.TID 0000.0001) %MON forcing_fu_mean              =  -3.9482155475800E-03
(PID.TID 0000.0001) %MON forcing_fu_sd                =   6.4744015694550E-02
(PID.TID 0000.0001) %MON forcing_fu_del2              =   6.3036110980489E-04
(PID.TID 0000.0001) %MON forcing_fv_max               =   3.1880295738465E-01
(PID.TID 0000.0001) %MON forcing_fv_min               =  -2.8240066816977E-01
(PID.TID 0000.0001) %MON forcing_fv_mean              =  -1.2379736605434E-02
(PID.TID 0000.0001) %MON forcing_fv_sd                =   6.5826800252581E-02
(PID.TID 0000.0001) %MON forcing_fv_del2              =   5.6733690671457E-04
(PID.TID 0000.0001) %MON trAdv_CFL_u_max              =   2.9836814453550E-03
(PID.TID 0000.0001) %MON trAdv_CFL_v_max              =   5.1900093989841E-03
(PID.TID 0000.0001) %MON trAdv_CFL_w_max              =   1.8724760739104E-03
(PID.TID 0000.0001) %MON advcfl_uvel_max              =   2.9703025540122E-03
(PID.TID 0000.0001) %MON advcfl_vvel_max              =   3.7669964165333E-03
(PID.TID 0000.0001) %MON advcfl_wvel_max              =   3.8998697115027E-03
(PID.TID 0000.0001) %MON advcfl_W_hf_max              =   2.6749658198720E-03
(PID.TID 0000.0001) %MON pe_b_mean                    =   5.1113992312162E-04
(PID.TID 0000.0001) %MON ke_max                       =   5.2901516495885E-01
(PID.TID 0000.0001) %MON ke_mean                      =   1.6826384556597E-04
(PID.TID 0000.0001) %MON ke_vol                       =   1.3398105005880E+18
(PID.TID 0000.0001) %MON vort_r_min                   =  -5.2483687134811E-06
(PID.TID 0000.0001) %MON vort_r_max                   =   3.7059817398668E-06
(PID.TID 0000.0001) %MON vort_a_mean                  =  -2.0549865324846E-05
(PID.TID 0000.0001) %MON vort_a_sd                    =   7.5259506510391E-05
(PID.TID 0000.0001) %MON vort_p_mean                  =  -2.4783321914266E-05
(PID.TID 0000.0001) %MON vort_p_sd                    =   1.2811906893234E-04
(PID.TID 0000.0001) %MON surfExpan_theta_mean         =  -6.7051341305580E-06
(PID.TID 0000.0001) %MON surfExpan_salt_mean          =   9.7204348931347E-07
(PID.TID 0000.0001) // =======================================================
(PID.TID 0000.0001) // End MONITOR dynamic field statistics
(PID.TID 0000.0001) // =======================================================
(PID.TID 0000.0001) // =======================================================
(PID.TID 0000.0001) // Begin MONITOR SEAICE statistics
(PID.TID 0000.0001) // =======================================================
(PID.TID 0000.0001) %MON seaice_tsnumber              =                 72035
(PID.TID 0000.0001) %MON seaice_time_sec              =   6.4831500000000E+07
(PID.TID 0000.0001) %MON seaice_uice_max              =   2.5978367517060E-01
(PID.TID 0000.0001) %MON seaice_uice_min              =  -9.0810610996133E-01
(PID.TID 0000.0001) %MON seaice_uice_mean             =  -6.6196430892392E-03
(PID.TID 0000.0001) %MON seaice_uice_sd               =   5.8091851134450E-02
(PID.TID 0000.0001) %MON seaice_uice_del2             =   8.8031660793807E-04
(PID.TID 0000.0001) %MON seaice_vice_max              =   9.9748992256005E-01
(PID.TID 0000.0001) %MON seaice_vice_min              =  -1.0503731514852E+00
(PID.TID 0000.0001) %MON seaice_vice_mean             =  -1.4615726790282E-02
(PID.TID 0000.0001) %MON seaice_vice_sd               =   6.3966654343439E-02
(PID.TID 0000.0001) %MON seaice_vice_del2             =   1.3650180483356E-03
(PID.TID 0000.0001) %MON seaice_area_max              =   1.0000000000000E+00
(PID.TID 0000.0001) %MON seaice_area_min              =   0.0000000000000E+00
(PID.TID 0000.0001) %MON seaice_area_mean             =   6.9207995936734E-02
(PID.TID 0000.0001) %MON seaice_area_sd               =   2.3775861513026E-01
(PID.TID 0000.0001) %MON seaice_area_del2             =   1.7667128960947E-03
(PID.TID 0000.0001) %MON seaice_heff_max              =   8.5145508620060E+00
(PID.TID 0000.0001) %MON seaice_heff_min              =   0.0000000000000E+00
(PID.TID 0000.0001) %MON seaice_heff_mean             =   2.0613291381205E-01
(PID.TID 0000.0001) %MON seaice_heff_sd               =   9.7970688222846E-01
(PID.TID 0000.0001) %MON seaice_heff_del2             =   6.2394626804207E-03
(PID.TID 0000.0001) %MON seaice_hsnow_max             =   2.0317700023579E+00
(PID.TID 0000.0001) %MON seaice_hsnow_min             =   0.0000000000000E+00
(PID.TID 0000.0001) %MON seaice_hsnow_mean            =   2.2755280223258E-02
(PID.TID 0000.0001) %MON seaice_hsnow_sd              =   1.1950586114124E-01
(PID.TID 0000.0001) %MON seaice_hsnow_del2            =   1.4637570802863E-03
(PID.TID 0000.0001) // =======================================================
(PID.TID 0000.0001) // End MONITOR SEAICE statistics
(PID.TID 0000.0001) // =======================================================
 SEAICE_LSR: Residual Initial ipass,Uice,Vice=    1  4.49017577E-03  2.40212874E-03
 SEAICE_LSR (ipass=   1) iters,dU,Resid=     6  2.65358456E-05  1.16117062E-04
 SEAICE_LSR (ipass=   1) iters,dV,Resid=     6  4.41189718E-06  1.89985345E-05
 SEAICE_LSR: Residual Initial ipass,Uice,Vice=    2  3.22391470E-03  1.67595114E-03
 SEAICE_LSR (ipass=   2) iters,dU,Resid=     4  5.65857262E-05  1.57862381E-04
 SEAICE_LSR (ipass=   2) iters,dV,Resid=     4  2.20543103E-05  3.58272390E-05
 cg2d: Sum(rhs),rhsMax =  -4.01542181453019E+01  4.87356158789967E+01
(PID.TID 0000.0001)      cg2d_init_res =   3.30557559589437E-01
(PID.TID 0000.0001)      cg2d_iters(min,last) =      -1      11
(PID.TID 0000.0001)      cg2d_last_res =   2.90380484531133E-08
(PID.TID 0000.0001) // =======================================================
(PID.TID 0000.0001) // Begin MONITOR dynamic field statistics
(PID.TID 0000.0001) // =======================================================
(PID.TID 0000.0001) %MON time_tsnumber                =                 72036
(PID.TID 0000.0001) %MON time_secondsf                =   6.4832400000000E+07
(PID.TID 0000.0001) %MON dynstat_eta_max              =   2.1758698298060E+00
(PID.TID 0000.0001) %MON dynstat_eta_min              =  -1.6075267551323E+00
(PID.TID 0000.0001) %MON dynstat_eta_mean             =   2.2739389774923E-02
(PID.TID 0000.0001) %MON dynstat_eta_sd               =   6.1864919828868E-01
(PID.TID 0000.0001) %MON dynstat_eta_del2             =   2.1073776734771E-03
(PID.TID 0000.0001) %MON dynstat_uvel_max             =   3.2247591110882E-01
(PID.TID 0000.0001) %MON dynstat_uvel_min             =  -9.5667504246866E-01
(PID.TID 0000.0001) %MON dynstat_uvel_mean            =  -3.1550028350553E-04
(PID.TID 0000.0001) %MON dynstat_uvel_sd              =   1.3000876922540E-02
(PID.TID 0000.0001) %MON dynstat_uvel_del2            =   8.6413619230966E-05
(PID.TID 0000.0001) %MON dynstat_vvel_max             =   1.1318807408333E+00
(PID.TID 0000.0001) %MON dynstat_vvel_min             =  -1.1226620647171E+00
(PID.TID 0000.0001) %MON dynstat_vvel_mean            =  -3.6383272917519E-04
(PID.TID 0000.0001) %MON dynstat_vvel_sd              =   1.3947705648116E-02
(PID.TID 0000.0001) %MON dynstat_vvel_del2            =   1.2683970985021E-04
(PID.TID 0000.0001) %MON dynstat_wvel_max             =   2.1146495322507E-04
(PID.TID 0000.0001) %MON dynstat_wvel_min             =  -2.1599252628149E-04
(PID.TID 0000.0001) %MON dynstat_wvel_mean            =  -2.0658566911843E-08
(PID.TID 0000.0001) %MON dynstat_wvel_sd              =   8.3433007282995E-06
(PID.TID 0000.0001) %MON dynstat_wvel_del2            =   7.4388493284398E-08
(PID.TID 0000.0001) %MON dynstat_theta_max            =   3.0923587450953E+01
(PID.TID 0000.0001) %MON dynstat_theta_min            =  -3.0053248048265E+00
(PID.TID 0000.0001) %MON dynstat_theta_mean           =   3.9091321741057E+00
(PID.TID 0000.0001) %MON dynstat_theta_sd             =   4.5713981167235E+00
(PID.TID 0000.0001) %MON dynstat_theta_del2           =   2.6450804797374E-03
(PID.TID 0000.0001) %MON dynstat_salt_max             =   4.1355624936029E+01
(PID.TID 0000.0001) %MON dynstat_salt_min             =   1.8518731308893E+01
(PID.TID 0000.0001) %MON dynstat_salt_mean            =   3.4772010885133E+01
(PID.TID 0000.0001) %MON dynstat_salt_sd              =   5.3155499094515E-01
(PID.TID 0000.0001) %MON dynstat_salt_del2            =   9.5838649413445E-04
(PID.TID 0000.0001) %MON dynstat_sst_max              =   3.0923587450953E+01
(PID.TID 0000.0001) %MON dynstat_sst_min              =  -1.9396194381683E+00
(PID.TID 0000.0001) %MON dynstat_sst_mean             =   1.8108487586581E+01
(PID.TID 0000.0001) %MON dynstat_sst_sd               =   9.8098624347675E+00
(PID.TID 0000.0001) %MON dynstat_sst_del2             =   1.5093813307881E-02
(PID.TID 0000.0001) %MON dynstat_sss_max              =   4.1355624936029E+01
(PID.TID 0000.0001) %MON dynstat_sss_min              =   1.8751417879408E+01
(PID.TID 0000.0001) %MON dynstat_sss_mean             =   3.4628536880693E+01
(PID.TID 0000.0001) %MON dynstat_sss_sd               =   1.4724357588705E+00
(PID.TID 0000.0001) %MON dynstat_sss_del2             =   1.0364974344354E-02
(PID.TID 0000.0001) %MON forcing_qnet_max             =   2.6167980479750E+03
(PID.TID 0000.0001) %MON forcing_qnet_min             =  -1.6467340423026E+03
(PID.TID 0000.0001) %MON forcing_qnet_mean            =   1.0302138515156E+01
(PID.TID 0000.0001) %MON forcing_qnet_sd              =   2.3141453605153E+02
(PID.TID 0000.0001) %MON forcing_qnet_del2            =   5.2378231352910E+00
(PID.TID 0000.0001) %MON forcing_qsw_max              =   0.0000000000000E+00
(PID.TID 0000.0001) %MON forcing_qsw_min              =  -1.0149999193936E+02
(PID.TID 0000.0001) %MON forcing_qsw_mean             =  -1.4484096193452E+01
(PID.TID 0000.0001) %MON forcing_qsw_sd               =   2.4547405354064E+01
(PID.TID 0000.0001) %MON forcing_qsw_del2             =   1.7964344335613E-01
(PID.TID 0000.0001) %MON forcing_empmr_max            =   7.7197728678584E-03
(PID.TID 0000.0001) %MON forcing_empmr_min            =  -1.1096583306789E-01
(PID.TID 0000.0001) %MON forcing_empmr_mean           =  -3.4387169444219E-04
(PID.TID 0000.0001) %MON forcing_empmr_sd             =   5.0410534124934E-03
(PID.TID 0000.0001) %MON forcing_empmr_del2           =   1.9958170504510E-04
(PID.TID 0000.0001) %MON forcing_fu_max               =   3.9453148267618E-01
(PID.TID 0000.0001) %MON forcing_fu_min               =  -3.6701930832211E-01
(PID.TID 0000.0001) %MON forcing_fu_mean              =  -3.8879341254825E-03
(PID.TID 0000.0001) %MON forcing_fu_sd                =   6.4364942243007E-02
(PID.TID 0000.0001) %MON forcing_fu_del2              =   6.2751067988848E-04
(PID.TID 0000.0001) %MON forcing_fv_max               =   3.1832748915872E-01
(PID.TID 0000.0001) %MON forcing_fv_min               =  -2.8062178582885E-01
(PID.TID 0000.0001) %MON forcing_fv_mean              =  -1.2573790606979E-02
(PID.TID 0000.0001) %MON forcing_fv_sd                =   6.5618483679370E-02
(PID.TID 0000.0001) %MON forcing_fv_del2              =   5.6409519110880E-04
(PID.TID 0000.0001) %MON trAdv_CFL_u_max              =   3.1295521887906E-03
(PID.TID 0000.0001) %MON trAdv_CFL_v_max              =   5.0271428029477E-03
(PID.TID 0000.0001) %MON trAdv_CFL_w_max              =   1.9033623029557E-03
(PID.TID 0000.0001) %MON advcfl_uvel_max              =   3.1046423708143E-03
(PID.TID 0000.0001) %MON advcfl_vvel_max              =   3.6636558308879E-03
(PID.TID 0000.0001) %MON advcfl_wvel_max              =   3.8596811501876E-03
(PID.TID 0000.0001) %MON advcfl_W_hf_max              =   2.7190890042224E-03
(PID.TID 0000.0001) %MON pe_b_mean                    =   5.1054859895350E-04
(PID.TID 0000.0001) %MON ke_max                       =   5.2584762016137E-01
(PID.TID 0000.0001) %MON ke_mean                      =   1.6801178720415E-04
(PID.TID 0000.0001) %MON ke_vol                       =   1.3398106111161E+18
(PID.TID 0000.0001) %MON vort_r_min                   =  -5.0228955974965E-06
(PID.TID 0000.0001) %MON vort_r_max                   =   3.7359655655533E-06
(PID.TID 0000.0001) %MON vort_a_mean                  =  -2.0549865324846E-05
(PID.TID 0000.0001) %MON vort_a_sd                    =   7.5259511429261E-05
(PID.TID 0000.0001) %MON vort_p_mean                  =  -2.4783320121319E-05
(PID.TID 0000.0001) %MON vort_p_sd                    =   1.2811908553686E-04
(PID.TID 0000.0001) %MON surfExpan_theta_mean         =  -6.6334697531305E-06
(PID.TID 0000.0001) %MON surfExpan_salt_mean          =   9.4995907131916E-07
(PID.TID 0000.0001) // =======================================================
(PID.TID 0000.0001) // End MONITOR dynamic field statistics
(PID.TID 0000.0001) // =======================================================
(PID.TID 0000.0001) // =======================================================
(PID.TID 0000.0001) // Begin MONITOR SEAICE statistics
(PID.TID 0000.0001) // =======================================================
(PID.TID 0000.0001) %MON seaice_tsnumber              =                 72036
(PID.TID 0000.0001) %MON seaice_time_sec              =   6.4832400000000E+07
(PID.TID 0000.0001) %MON seaice_uice_max              =   2.5804635512404E-01
(PID.TID 0000.0001) %MON seaice_uice_min              =  -9.1491976032339E-01
(PID.TID 0000.0001) %MON seaice_uice_mean             =  -6.7418289012575E-03
(PID.TID 0000.0001) %MON seaice_uice_sd               =   5.8227967790242E-02
(PID.TID 0000.0001) %MON seaice_uice_del2             =   8.8449442240741E-04
(PID.TID 0000.0001) %MON seaice_vice_max              =   1.0226147393596E+00
(PID.TID 0000.0001) %MON seaice_vice_min              =  -1.0296253218587E+00
(PID.TID 0000.0001) %MON seaice_vice_mean             =  -1.4673166043518E-02
(PID.TID 0000.0001) %MON seaice_vice_sd               =   6.3732664759266E-02
(PID.TID 0000.0001) %MON seaice_vice_del2             =   1.3590473311047E-03
(PID.TID 0000.0001) %MON seaice_area_max              =   1.0000000000000E+00
(PID.TID 0000.0001) %MON seaice_area_min              =   0.0000000000000E+00
(PID.TID 0000.0001) %MON seaice_area_mean             =   6.9203401137359E-02
(PID.TID 0000.0001) %MON seaice_area_sd               =   2.3774345189418E-01
(PID.TID 0000.0001) %MON seaice_area_del2             =   1.7657453071709E-03
(PID.TID 0000.0001) %MON seaice_heff_max              =   8.5159296003127E+00
(PID.TID 0000.0001) %MON seaice_heff_min              =   0.0000000000000E+00
(PID.TID 0000.0001) %MON seaice_heff_mean             =   2.0613481428013E-01
(PID.TID 0000.0001) %MON seaice_heff_sd               =   9.7974769012954E-01
(PID.TID 0000.0001) %MON seaice_heff_del2             =   6.2395773571454E-03
(PID.TID 0000.0001) %MON seaice_hsnow_max             =   2.0317711329780E+00
(PID.TID 0000.0001) %MON seaice_hsnow_min             =   0.0000000000000E+00
(PID.TID 0000.0001) %MON seaice_hsnow_mean            =   2.2754453707771E-02
(PID.TID 0000.0001) %MON seaice_hsnow_sd              =   1.1950276103855E-01
(PID.TID 0000.0001) %MON seaice_hsnow_del2            =   1.4636761865550E-03
(PID.TID 0000.0001) // =======================================================
(PID.TID 0000.0001) // End MONITOR SEAICE statistics
(PID.TID 0000.0001) // =======================================================
 Compute Stats, Diag. #    211  SIarea    vol(   0 ): 1.456E+15  Parms: SM      M1      
 Compute Stats, Diag. #    214  SIheff    vol(   0 ): 1.456E+15  Parms: SM      M1      
 Compute Stats, Diag. #    216  SIhsnow   vol(   0 ): 1.456E+15  Parms: SM      M1      
 Compute Stats, Diag. #     83  sIceLoad  vol(   0 ): 1.456E+15  Parms: SM      U1      
 Compute Stats, Diag. #    220  SIuice    vol(   0 ): 1.383E+15  Parms: UU      M1      
 Compute Stats, Diag. #    221  SIvice    vol(   0 ): 1.391E+15  Parms: VV      M1      
 Compute Stats, Diag. #    222  SItaux    vol(   0 ): 1.383E+15  Parms: UU      U1      
 Compute Stats, Diag. #    223  SItauy    vol(   0 ): 1.391E+15  Parms: VV      U1      
 SEAICE_LSR: Residual Initial ipass,Uice,Vice=    1  3.59495865E-03  2.46285858E-03
 SEAICE_LSR (ipass=   1) iters,dU,Resid=     4  9.23141812E-05  1.73630310E-04
 SEAICE_LSR (ipass=   1) iters,dV,Resid=     4  3.11451895E-05  4.33616000E-05
 SEAICE_LSR: Residual Initial ipass,Uice,Vice=    2  2.40681451E-03  1.74702648E-03
 SEAICE_LSR (ipass=   2) iters,dU,Resid=     4  3.89640307E-05  1.56776754E-04
 SEAICE_LSR (ipass=   2) iters,dV,Resid=     4  2.42528788E-05  3.59222545E-05
 cg2d: Sum(rhs),rhsMax =  -3.83662708190049E+01  5.16642259502273E+01
(PID.TID 0000.0001)      cg2d_init_res =   3.06215636429349E-01
(PID.TID 0000.0001)      cg2d_iters(min,last) =      -1      11
(PID.TID 0000.0001)      cg2d_last_res =   2.53706132450334E-08
(PID.TID 0000.0001) // =======================================================
(PID.TID 0000.0001) // Begin MONITOR dynamic field statistics
(PID.TID 0000.0001) // =======================================================
(PID.TID 0000.0001) %MON time_tsnumber                =                 72037
(PID.TID 0000.0001) %MON time_secondsf                =   6.4833300000000E+07
(PID.TID 0000.0001) %MON dynstat_eta_max              =   2.3057571250920E+00
(PID.TID 0000.0001) %MON dynstat_eta_min              =  -1.6077833762554E+00
(PID.TID 0000.0001) %MON dynstat_eta_mean             =   2.3032479236650E-02
(PID.TID 0000.0001) %MON dynstat_eta_sd               =   6.1833966225993E-01
(PID.TID 0000.0001) %MON dynstat_eta_del2             =   2.0489201285424E-03
(PID.TID 0000.0001) %MON dynstat_uvel_max             =   3.3313646315974E-01
(PID.TID 0000.0001) %MON dynstat_uvel_min             =  -9.5167932145764E-01
(PID.TID 0000.0001) %MON dynstat_uvel_mean            =  -3.4932736590516E-04
(PID.TID 0000.0001) %MON dynstat_uvel_sd              =   1.3018857107097E-02
(PID.TID 0000.0001) %MON dynstat_uvel_del2            =   8.6600940211344E-05
(PID.TID 0000.0001) %MON dynstat_vvel_max             =   1.1260517855581E+00
(PID.TID 0000.0001) %MON dynstat_vvel_min             =  -1.0747293152287E+00
(PID.TID 0000.0001) %MON dynstat_vvel_mean            =  -3.3468371163388E-04
(PID.TID 0000.0001) %MON dynstat_vvel_sd              =   1.3900553541505E-02
(PID.TID 0000.0001) %MON dynstat_vvel_del2            =   1.2524054963234E-04
(PID.TID 0000.0001) %MON dynstat_wvel_max             =   2.1315358577966E-04
(PID.TID 0000.0001) %MON dynstat_wvel_min             =  -2.0447069206896E-04
(PID.TID 0000.0001) %MON dynstat_wvel_mean            =  -1.3370222729514E-08
(PID.TID 0000.0001) %MON dynstat_wvel_sd              =   8.2880821136954E-06
(PID.TID 0000.0001) %MON dynstat_wvel_del2            =   7.4369027330360E-08
(PID.TID 0000.0001) %MON dynstat_theta_max            =   3.0923741881206E+01
(PID.TID 0000.0001) %MON dynstat_theta_min            =  -3.0051845095106E+00
(PID.TID 0000.0001) %MON dynstat_theta_mean           =   3.9091332530406E+00
(PID.TID 0000.0001) %MON dynstat_theta_sd             =   4.5714029131175E+00
(PID.TID 0000.0001) %MON dynstat_theta_del2           =   2.6449441638889E-03
(PID.TID 0000.0001) %MON dynstat_salt_max             =   4.1355310350465E+01
(PID.TID 0000.0001) %MON dynstat_salt_min             =   1.8518741786941E+01
(PID.TID 0000.0001) %MON dynstat_salt_mean            =   3.4772007461775E+01
(PID.TID 0000.0001) %MON dynstat_salt_sd              =   5.3157391767760E-01
(PID.TID 0000.0001) %MON dynstat_salt_del2            =   9.6354699351898E-04
(PID.TID 0000.0001) %MON dynstat_sst_max              =   3.0923741881206E+01
(PID.TID 0000.0001) %MON dynstat_sst_min              =  -1.9394243642793E+00
(PID.TID 0000.0001) %MON dynstat_sst_mean             =   1.8108467172094E+01
(PID.TID 0000.0001) %MON dynstat_sst_sd               =   9.8099714814065E+00
(PID.TID 0000.0001) %MON dynstat_sst_del2             =   1.5091097201258E-02
(PID.TID 0000.0001) %MON dynstat_sss_max              =   4.1355310350465E+01
(PID.TID 0000.0001) %MON dynstat_sss_min              =   1.8751424602898E+01
(PID.TID 0000.0001) %MON dynstat_sss_mean             =   3.4628293939879E+01
(PID.TID 0000.0001) %MON dynstat_sss_sd               =   1.4729124911154E+00
(PID.TID 0000.0001) %MON dynstat_sss_del2             =   1.0440238305077E-02
(PID.TID 0000.0001) %MON forcing_qnet_max             =   2.5823511725912E+03
(PID.TID 0000.0001) %MON forcing_qnet_min             =  -1.6233806007933E+03
(PID.TID 0000.0001) %MON forcing_qnet_mean            =   1.2805867131530E+01
(PID.TID 0000.0001) %MON forcing_qnet_sd              =   2.2668989865906E+02
(PID.TID 0000.0001) %MON forcing_qnet_del2            =   4.9922959993148E+00
(PID.TID 0000.0001) %MON forcing_qsw_max              =   0.0000000000000E+00
(PID.TID 0000.0001) %MON forcing_qsw_min              =  -1.0358307060335E+02
(PID.TID 0000.0001) %MON forcing_qsw_mean             =  -1.4041424599750E+01
(PID.TID 0000.0001) %MON forcing_qsw_sd               =   2.4860514710131E+01
(PID.TID 0000.0001) %MON forcing_qsw_del2             =   1.7030033750082E-01
(PID.TID 0000.0001) %MON forcing_empmr_max            =   7.6402621343732E-03
(PID.TID 0000.0001) %MON forcing_empmr_min            =  -1.0982298851013E-01
(PID.TID 0000.0001) %MON forcing_empmr_mean           =  -3.3705288098523E-04
(PID.TID 0000.0001) %MON forcing_empmr_sd             =   4.9349192799669E-03
(PID.TID 0000.0001) %MON forcing_empmr_del2           =   1.9547401538125E-04
(PID.TID 0000.0001) %MON forcing_fu_max               =   3.9293385600153E-01
(PID.TID 0000.0001) %MON forcing_fu_min               =  -3.6642067205862E-01
(PID.TID 0000.0001) %MON forcing_fu_mean              =  -3.8190608390498E-03
(PID.TID 0000.0001) %MON forcing_fu_sd                =   6.4078336795027E-02
(PID.TID 0000.0001) %MON forcing_fu_del2              =   6.2558629563820E-04
(PID.TID 0000.0001) %MON forcing_fv_max               =   3.1856419514474E-01
(PID.TID 0000.0001) %MON forcing_fv_min               =  -2.8295858997246E-01
(PID.TID 0000.0001) %MON forcing_fv_mean              =  -1.2739963236778E-02
(PID.TID 0000.0001) %MON forcing_fv_sd                =   6.5534172310650E-02
(PID.TID 0000.0001) %MON forcing_fv_del2              =   5.6186335134622E-04
(PID.TID 0000.0001) %MON trAdv_CFL_u_max              =   3.2103939118860E-03
(PID.TID 0000.0001) %MON trAdv_CFL_v_max              =   4.8062653078519E-03
(PID.TID 0000.0001) %MON trAdv_CFL_w_max              =   1.9185408462567E-03
(PID.TID 0000.0001) %MON advcfl_uvel_max              =   3.1736284464856E-03
(PID.TID 0000.0001) %MON advcfl_vvel_max              =   3.5072337848664E-03
(PID.TID 0000.0001) %MON advcfl_wvel_max              =   3.8199300351350E-03
(PID.TID 0000.0001) %MON advcfl_W_hf_max              =   2.7407726375096E-03
(PID.TID 0000.0001) %MON pe_b_mean                    =   5.1005634839971E-04
(PID.TID 0000.0001) %MON ke_max                       =   5.0604458731216E-01
(PID.TID 0000.0001) %MON ke_mean                      =   1.6761832783286E-04
(PID.TID 0000.0001) %MON ke_vol                       =   1.3398107199251E+18
(PID.TID 0000.0001) %MON vort_r_min                   =  -4.7581043236328E-06
(PID.TID 0000.0001) %MON vort_r_max                   =   3.7167261038277E-06
(PID.TID 0000.0001) %MON vort_a_mean                  =  -2.0549865324846E-05
(PID.TID 0000.0001) %MON vort_a_sd                    =   7.5259517568668E-05
(PID.TID 0000.0001) %MON vort_p_mean                  =  -2.4783318368994E-05
(PID.TID 0000.0001) %MON vort_p_sd                    =   1.2811910181870E-04
(PID.TID 0000.0001) %MON surfExpan_theta_mean         =  -6.5525989673526E-06
(PID.TID 0000.0001) %MON surfExpan_salt_mean          =   9.3105835287847E-07
(PID.TID 0000.0001) // =======================================================
(PID.TID 0000.0001) // End MONITOR dynamic field statistics
(PID.TID 0000.0001) // =======================================================
(PID.TID 0000.0001) // =======================================================
(PID.TID 0000.0001) // Begin MONITOR SEAICE statistics
(PID.TID 0000.0001) // =======================================================
(PID.TID 0000.0001) %MON seaice_tsnumber              =                 72037
(PID.TID 0000.0001) %MON seaice_time_sec              =   6.4833300000000E+07
(PID.TID 0000.0001) %MON seaice_uice_max              =   2.5630417189024E-01
(PID.TID 0000.0001) %MON seaice_uice_min              =  -9.1527895612591E-01
(PID.TID 0000.0001) %MON seaice_uice_mean             =  -6.8431291112445E-03
(PID.TID 0000.0001) %MON seaice_uice_sd               =   5.8296718708774E-02
(PID.TID 0000.0001) %MON seaice_uice_del2             =   8.8761106374825E-04
(PID.TID 0000.0001) %MON seaice_vice_max              =   1.0316339099066E+00
(PID.TID 0000.0001) %MON seaice_vice_min              =  -9.9193268345729E-01
(PID.TID 0000.0001) %MON seaice_vice_mean             =  -1.4723539794946E-02
(PID.TID 0000.0001) %MON seaice_vice_sd               =   6.3417845960760E-02
(PID.TID 0000.0001) %MON seaice_vice_del2             =   1.3437167113869E-03
(PID.TID 0000.0001) %MON seaice_area_max              =   1.0000000000000E+00
(PID.TID 0000.0001) %MON seaice_area_min              =   0.0000000000000E+00
(PID.TID 0000.0001) %MON seaice_area_mean             =   6.9198682167763E-02
(PID.TID 0000.0001) %MON seaice_area_sd               =   2.3772805482368E-01
(PID.TID 0000.0001) %MON seaice_area_del2             =   1.7647423942805E-03
(PID.TID 0000.0001) %MON seaice_heff_max              =   8.5172683097803E+00
(PID.TID 0000.0001) %MON seaice_heff_min              =   0.0000000000000E+00
(PID.TID 0000.0001) %MON seaice_heff_mean             =   2.0613624017489E-01
(PID.TID 0000.0001) %MON seaice_heff_sd               =   9.7978636394635E-01
(PID.TID 0000.0001) %MON seaice_heff_del2             =   6.2396803280079E-03
(PID.TID 0000.0001) %MON seaice_hsnow_max             =   2.0317736777827E+00
(PID.TID 0000.0001) %MON seaice_hsnow_min             =   0.0000000000000E+00
(PID.TID 0000.0001) %MON seaice_hsnow_mean            =   2.2753730660363E-02
(PID.TID 0000.0001) %MON seaice_hsnow_sd              =   1.1949965061503E-01
(PID.TID 0000.0001) %MON seaice_hsnow_del2            =   1.4635949376593E-03
(PID.TID 0000.0001) // =======================================================
(PID.TID 0000.0001) // End MONITOR SEAICE statistics
(PID.TID 0000.0001) // =======================================================
 Computing Diagnostic #    211  SIarea       Counter:       1   Parms: SM      M1      
 Computing Diagnostic #    214  SIheff       Counter:       1   Parms: SM      M1      
 Computing Diagnostic #    216  SIhsnow      Counter:       1   Parms: SM      M1      
 Computing Diagnostic #     83  sIceLoad     Counter:       1   Parms: SM      U1      
 Computing Diagnostic #    220  SIuice       Counter:       1   Parms: UU      M1      
           Vector  Mate for  SIuice       Diagnostic #    221  SIvice   exists 
 Computing Diagnostic #    221  SIvice       Counter:       1   Parms: VV      M1      
           Vector  Mate for  SIvice       Diagnostic #    220  SIuice   exists 
 Computing Diagnostic #    222  SItaux       Counter:       1   Parms: UU      U1      
           Vector  Mate for  SItaux       Diagnostic #    223  SItauy   exists 
 Computing Diagnostic #    223  SItauy       Counter:       1   Parms: VV      U1      
           Vector  Mate for  SItauy       Diagnostic #    222  SItaux   exists 
 Computing Diagnostic #      1  SDIAG1       Counter:       1   Parms: SM      L1      
 Computing Diagnostic #    282  SIareaN      Counter:       1   Parms: SM      MX      
 Computing Diagnostic #    281  SIheffN      Counter:       1   Parms: SM      MX      
 Computing Diagnostic #    283  SIhsnowN     Counter:       1   Parms: SM      MX      
 SEAICE_LSR: Residual Initial ipass,Uice,Vice=    1  3.34579493E-03  2.62103143E-03
 SEAICE_LSR (ipass=   1) iters,dU,Resid=     6  5.07605070E-05  1.10788362E-04
 SEAICE_LSR (ipass=   1) iters,dV,Resid=     6  6.78124170E-06  2.00281857E-05
 SEAICE_LSR: Residual Initial ipass,Uice,Vice=    2  2.24147106E-03  1.86462074E-03
 SEAICE_LSR (ipass=   2) iters,dU,Resid=     4  7.47291368E-05  1.56457647E-04
 SEAICE_LSR (ipass=   2) iters,dV,Resid=     4  4.22841650E-05  3.71019176E-05
 cg2d: Sum(rhs),rhsMax =  -3.68441233623198E+01  5.44619202219373E+01
(PID.TID 0000.0001)      cg2d_init_res =   2.84365734915039E-01
(PID.TID 0000.0001)      cg2d_iters(min,last) =      -1      10
(PID.TID 0000.0001)      cg2d_last_res =   9.80668446962007E-08
(PID.TID 0000.0001) // =======================================================
(PID.TID 0000.0001) // Begin MONITOR dynamic field statistics
(PID.TID 0000.0001) // =======================================================
(PID.TID 0000.0001) %MON time_tsnumber                =                 72038
(PID.TID 0000.0001) %MON time_secondsf                =   6.4834200000000E+07
(PID.TID 0000.0001) %MON dynstat_eta_max              =   2.4298103728257E+00
(PID.TID 0000.0001) %MON dynstat_eta_min              =  -1.6080571278844E+00
(PID.TID 0000.0001) %MON dynstat_eta_mean             =   2.3316445821184E-02
(PID.TID 0000.0001) %MON dynstat_eta_sd               =   6.1809415672778E-01
(PID.TID 0000.0001) %MON dynstat_eta_del2             =   2.0238573521027E-03
(PID.TID 0000.0001) %MON dynstat_uvel_max             =   3.4240743489530E-01
(PID.TID 0000.0001) %MON dynstat_uvel_min             =  -9.5338683512722E-01
(PID.TID 0000.0001) %MON dynstat_uvel_mean            =  -3.8092072838040E-04
(PID.TID 0000.0001) %MON dynstat_uvel_sd              =   1.3027667865389E-02
(PID.TID 0000.0001) %MON dynstat_uvel_del2            =   8.6693288980879E-05
(PID.TID 0000.0001) %MON dynstat_vvel_max             =   1.1062428573688E+00
(PID.TID 0000.0001) %MON dynstat_vvel_min             =  -1.0118564775675E+00
(PID.TID 0000.0001) %MON dynstat_vvel_mean            =  -3.0119610244369E-04
(PID.TID 0000.0001) %MON dynstat_vvel_sd              =   1.3851970849301E-02
(PID.TID 0000.0001) %MON dynstat_vvel_del2            =   1.2307029304699E-04
(PID.TID 0000.0001) %MON dynstat_wvel_max             =   2.1314306234193E-04
(PID.TID 0000.0001) %MON dynstat_wvel_min             =  -1.9671326273071E-04
(PID.TID 0000.0001) %MON dynstat_wvel_mean            =  -1.0109803575819E-08
(PID.TID 0000.0001) %MON dynstat_wvel_sd              =   8.2286331202969E-06
(PID.TID 0000.0001) %MON dynstat_wvel_del2            =   7.4355786542766E-08
(PID.TID 0000.0001) %MON dynstat_theta_max            =   3.0923895824008E+01
(PID.TID 0000.0001) %MON dynstat_theta_min            =  -3.0050378050250E+00
(PID.TID 0000.0001) %MON dynstat_theta_mean           =   3.9091341960541E+00
(PID.TID 0000.0001) %MON dynstat_theta_sd             =   4.5714072068074E+00
(PID.TID 0000.0001) %MON dynstat_theta_del2           =   2.6448058821060E-03
(PID.TID 0000.0001) %MON dynstat_salt_max             =   4.1354990873630E+01
(PID.TID 0000.0001) %MON dynstat_salt_min             =   1.8518752285675E+01
(PID.TID 0000.0001) %MON dynstat_salt_mean            =   3.4772004114004E+01
(PID.TID 0000.0001) %MON dynstat_salt_sd              =   5.3159270623293E-01
(PID.TID 0000.0001) %MON dynstat_salt_del2            =   9.6864984821989E-04
(PID.TID 0000.0001) %MON dynstat_sst_max              =   3.0923895824008E+01
(PID.TID 0000.0001) %MON dynstat_sst_min              =  -1.9392302462071E+00
(PID.TID 0000.0001) %MON dynstat_sst_mean             =   1.8108439524067E+01
(PID.TID 0000.0001) %MON dynstat_sst_sd               =   9.8100752815560E+00
(PID.TID 0000.0001) %MON dynstat_sst_del2             =   1.5088270310415E-02
(PID.TID 0000.0001) %MON dynstat_sss_max              =   4.1354990873630E+01
(PID.TID 0000.0001) %MON dynstat_sss_min              =   1.8751432761622E+01
(PID.TID 0000.0001) %MON dynstat_sss_mean             =   3.4628056740972E+01
(PID.TID 0000.0001) %MON dynstat_sss_sd               =   1.4733853475980E+00
(PID.TID 0000.0001) %MON dynstat_sss_del2             =   1.0514516084735E-02
(PID.TID 0000.0001) %MON forcing_qnet_max             =   2.5479742475328E+03
(PID.TID 0000.0001) %MON forcing_qnet_min             =  -1.6006374188697E+03
(PID.TID 0000.0001) %MON forcing_qnet_mean            =   1.4557475233301E+01
(PID.TID 0000.0001) %MON forcing_qnet_sd              =   2.2479755410915E+02
(PID.TID 0000.0001) %MON forcing_qnet_del2            =   4.9230801956086E+00
(PID.TID 0000.0001) %MON forcing_qsw_max              =   0.0000000000000E+00
(PID.TID 0000.0001) %MON forcing_qsw_min              =  -1.0383035930301E+02
(PID.TID 0000.0001) %MON forcing_qsw_mean             =  -1.3898220246682E+01
(PID.TID 0000.0001) %MON forcing_qsw_sd               =   2.4953131197518E+01
(PID.TID 0000.0001) %MON forcing_qsw_del2             =   1.6710906027852E-01
(PID.TID 0000.0001) %MON forcing_empmr_max            =   7.5614410452545E-03
(PID.TID 0000.0001) %MON forcing_empmr_min            =  -1.0869106650352E-01
(PID.TID 0000.0001) %MON forcing_empmr_mean           =  -3.2656157221390E-04
(PID.TID 0000.0001) %MON forcing_empmr_sd             =   4.8134084390117E-03
(PID.TID 0000.0001) %MON forcing_empmr_del2           =   1.9078204922893E-04
(PID.TID 0000.0001) %MON forcing_fu_max               =   3.8875785335368E-01
(PID.TID 0000.0001) %MON forcing_fu_min               =  -3.6516412394560E-01
(PID.TID 0000.0001) %MON forcing_fu_mean              =  -3.7505516577451E-03
(PID.TID 0000.0001) %MON forcing_fu_sd                =   6.3834750481463E-02
(PID.TID 0000.0001) %MON forcing_fu_del2              =   6.2430247226764E-04
(PID.TID 0000.0001) %MON forcing_fv_max               =   3.2101522997739E-01
(PID.TID 0000.0001) %MON forcing_fv_min               =  -2.8332607094114E-01
(PID.TID 0000.0001) %MON forcing_fv_mean              =  -1.2882032369621E-02
(PID.TID 0000.0001) %MON forcing_fv_sd                =   6.5454313494921E-02
(PID.TID 0000.0001) %MON forcing_fv_del2              =   5.6024387613628E-04
(PID.TID 0000.0001) %MON trAdv_CFL_u_max              =   3.2274287320518E-03
(PID.TID 0000.0001) %MON trAdv_CFL_v_max              =   4.5321890101673E-03
(PID.TID 0000.0001) %MON trAdv_CFL_w_max              =   1.9184266972465E-03
(PID.TID 0000.0001) %MON advcfl_uvel_max              =   3.1793226060962E-03
(PID.TID 0000.0001) %MON advcfl_vvel_max              =   3.3151547547968E-03
(PID.TID 0000.0001) %MON advcfl_wvel_max              =   3.7805588349052E-03
(PID.TID 0000.0001) %MON advcfl_W_hf_max              =   2.7406095674950E-03
(PID.TID 0000.0001) %MON pe_b_mean                    =   5.0966945734608E-04
(PID.TID 0000.0001) %MON ke_max                       =   4.7138520398164E-01
(PID.TID 0000.0001) %MON ke_mean                      =   1.6709887233391E-04
(PID.TID 0000.0001) %MON ke_vol                       =   1.3398108265765E+18
(PID.TID 0000.0001) %MON vort_r_min                   =  -4.4567866953420E-06
(PID.TID 0000.0001) %MON vort_r_max                   =   3.6513433555079E-06
(PID.TID 0000.0001) %MON vort_a_mean                  =  -2.0549865324846E-05
(PID.TID 0000.0001) %MON vort_a_sd                    =   7.5259524887441E-05
(PID.TID 0000.0001) %MON vort_p_mean                  =  -2.4783316660258E-05
(PID.TID 0000.0001) %MON vort_p_sd                    =   1.2811911658467E-04
(PID.TID 0000.0001) %MON surfExpan_theta_mean         =  -6.4497512088373E-06
(PID.TID 0000.0001) %MON surfExpan_salt_mean          =   9.1531155962511E-07
(PID.TID 0000.0001) // =======================================================
(PID.TID 0000.0001) // End MONITOR dynamic field statistics
(PID.TID 0000.0001) // =======================================================
(PID.TID 0000.0001) // =======================================================
(PID.TID 0000.0001) // Begin MONITOR SEAICE statistics
(PID.TID 0000.0001) // =======================================================
(PID.TID 0000.0001) %MON seaice_tsnumber              =                 72038
(PID.TID 0000.0001) %MON seaice_time_sec              =   6.4834200000000E+07
(PID.TID 0000.0001) %MON seaice_uice_max              =   2.5454453983349E-01
(PID.TID 0000.0001) %MON seaice_uice_min              =  -9.0911536070149E-01
(PID.TID 0000.0001) %MON seaice_uice_mean             =  -6.9272773577971E-03
(PID.TID 0000.0001) %MON seaice_uice_sd               =   5.8248287315594E-02
(PID.TID 0000.0001) %MON seaice_uice_del2             =   8.8888300892573E-04
(PID.TID 0000.0001) %MON seaice_vice_max              =   1.0255305704349E+00
(PID.TID 0000.0001) %MON seaice_vice_min              =  -9.3847580181534E-01
(PID.TID 0000.0001) %MON seaice_vice_mean             =  -1.4765901139971E-02
(PID.TID 0000.0001) %MON seaice_vice_sd               =   6.3025123023765E-02
(PID.TID 0000.0001) %MON seaice_vice_del2             =   1.3190579090185E-03
(PID.TID 0000.0001) %MON seaice_area_max              =   1.0000000000000E+00
(PID.TID 0000.0001) %MON seaice_area_min              =   0.0000000000000E+00
(PID.TID 0000.0001) %MON seaice_area_mean             =   6.9193849905043E-02
(PID.TID 0000.0001) %MON seaice_area_sd               =   2.3771250232644E-01
(PID.TID 0000.0001) %MON seaice_area_del2             =   1.7637326357009E-03
(PID.TID 0000.0001) %MON seaice_heff_max              =   8.5185682296118E+00
(PID.TID 0000.0001) %MON seaice_heff_min              =   0.0000000000000E+00
(PID.TID 0000.0001) %MON seaice_heff_mean             =   2.0613719681558E-01
(PID.TID 0000.0001) %MON seaice_heff_sd               =   9.7982293797693E-01
(PID.TID 0000.0001) %MON seaice_heff_del2             =   6.2397712979966E-03
(PID.TID 0000.0001) %MON seaice_hsnow_max             =   2.0317763469031E+00
(PID.TID 0000.0001) %MON seaice_hsnow_min             =   0.0000000000000E+00
(PID.TID 0000.0001) %MON seaice_hsnow_mean            =   2.2753035102523E-02
(PID.TID 0000.0001) %MON seaice_hsnow_sd              =   1.1949645566200E-01
(PID.TID 0000.0001) %MON seaice_hsnow_del2            =   1.4635124487051E-03
(PID.TID 0000.0001) // =======================================================
(PID.TID 0000.0001) // End MONITOR SEAICE statistics
(PID.TID 0000.0001) // =======================================================
 SEAICE_LSR: Residual Initial ipass,Uice,Vice=    1  3.13009164E-03  2.68648897E-03
 SEAICE_LSR (ipass=   1) iters,dU,Resid=     6  6.30520681E-05  1.10488711E-04
 SEAICE_LSR (ipass=   1) iters,dV,Resid=     6  5.25973668E-06  2.02839083E-05
 SEAICE_LSR: Residual Initial ipass,Uice,Vice=    2  2.15230299E-03  1.91002814E-03
 SEAICE_LSR (ipass=   2) iters,dU,Resid=     4  8.64005858E-05  1.55314857E-04
 SEAICE_LSR (ipass=   2) iters,dV,Resid=     4  3.60264584E-05  3.71973733E-05
 cg2d: Sum(rhs),rhsMax =  -3.55601280753125E+01  5.70946666376811E+01
(PID.TID 0000.0001)      cg2d_init_res =   2.64011499232845E-01
(PID.TID 0000.0001)      cg2d_iters(min,last) =      -1      10
(PID.TID 0000.0001)      cg2d_last_res =   8.55652104771883E-08
(PID.TID 0000.0001) // =======================================================
(PID.TID 0000.0001) // Begin MONITOR dynamic field statistics
(PID.TID 0000.0001) // =======================================================
(PID.TID 0000.0001) %MON time_tsnumber                =                 72039
(PID.TID 0000.0001) %MON time_secondsf                =   6.4835100000000E+07
(PID.TID 0000.0001) %MON dynstat_eta_max              =   2.5465231311329E+00
(PID.TID 0000.0001) %MON dynstat_eta_min              =  -1.6082987291227E+00
(PID.TID 0000.0001) %MON dynstat_eta_mean             =   2.3591743149172E-02
(PID.TID 0000.0001) %MON dynstat_eta_sd               =   6.1791299883120E-01
(PID.TID 0000.0001) %MON dynstat_eta_del2             =   2.0311193244826E-03
(PID.TID 0000.0001) %MON dynstat_uvel_max             =   3.5019025394821E-01
(PID.TID 0000.0001) %MON dynstat_uvel_min             =  -9.3702968265882E-01
(PID.TID 0000.0001) %MON dynstat_uvel_mean            =  -4.0989642689646E-04
(PID.TID 0000.0001) %MON dynstat_uvel_sd              =   1.3026320439803E-02
(PID.TID 0000.0001) %MON dynstat_uvel_del2            =   8.6702844892240E-05
(PID.TID 0000.0001) %MON dynstat_vvel_max             =   1.0735469010059E+00
(PID.TID 0000.0001) %MON dynstat_vvel_min             =  -9.3557388646908E-01
(PID.TID 0000.0001) %MON dynstat_vvel_mean            =  -2.6364040086908E-04
(PID.TID 0000.0001) %MON dynstat_vvel_sd              =   1.3804530201320E-02
(PID.TID 0000.0001) %MON dynstat_vvel_del2            =   1.2036254134922E-04
(PID.TID 0000.0001) %MON dynstat_wvel_max             =   2.1154722188383E-04
(PID.TID 0000.0001) %MON dynstat_wvel_min             =  -1.9617582142103E-04
(PID.TID 0000.0001) %MON dynstat_wvel_mean            =  -1.1441398955792E-08
(PID.TID 0000.0001) %MON dynstat_wvel_sd              =   8.1682248172575E-06
(PID.TID 0000.0001) %MON dynstat_wvel_del2            =   7.4381503436419E-08
(PID.TID 0000.0001) %MON dynstat_theta_max            =   3.0924049567590E+01
(PID.TID 0000.0001) %MON dynstat_theta_min            =  -3.0048888952880E+00
(PID.TID 0000.0001) %MON dynstat_theta_mean           =   3.9091349904585E+00
(PID.TID 0000.0001) %MON dynstat_theta_sd             =   4.5714109335950E+00
(PID.TID 0000.0001) %MON dynstat_theta_del2           =   2.6445408267017E-03
(PID.TID 0000.0001) %MON dynstat_salt_max             =   4.1354665646340E+01
(PID.TID 0000.0001) %MON dynstat_salt_min             =   1.8518762799561E+01
(PID.TID 0000.0001) %MON dynstat_salt_mean            =   3.4772000829456E+01
(PID.TID 0000.0001) %MON dynstat_salt_sd              =   5.3161132690581E-01
(PID.TID 0000.0001) %MON dynstat_salt_del2            =   9.7369242531074E-04
(PID.TID 0000.0001) %MON dynstat_sst_max              =   3.0924049567590E+01
(PID.TID 0000.0001) %MON dynstat_sst_min              =  -1.9390373250929E+00
(PID.TID 0000.0001) %MON dynstat_sst_mean             =   1.8108425376744E+01
(PID.TID 0000.0001) %MON dynstat_sst_sd               =   9.8101286238157E+00
(PID.TID 0000.0001) %MON dynstat_sst_del2             =   1.5081537765534E-02
(PID.TID 0000.0001) %MON dynstat_sss_max              =   4.1354665646340E+01
(PID.TID 0000.0001) %MON dynstat_sss_min              =   1.8751442529481E+01
(PID.TID 0000.0001) %MON dynstat_sss_mean             =   3.4627825088775E+01
(PID.TID 0000.0001) %MON dynstat_sss_sd               =   1.4738532599216E+00
(PID.TID 0000.0001) %MON dynstat_sss_del2             =   1.0587775788980E-02
(PID.TID 0000.0001) %MON forcing_qnet_max             =   2.5140543802269E+03
(PID.TID 0000.0001) %MON forcing_qnet_min             =  -1.5795520450399E+03
(PID.TID 0000.0001) %MON forcing_qnet_mean            =   1.6597797512380E+01
(PID.TID 0000.0001) %MON forcing_qnet_sd              =   2.2377202259461E+02
(PID.TID 0000.0001) %MON forcing_qnet_del2            =   4.9533724741263E+00
(PID.TID 0000.0001) %MON forcing_qsw_max              =   0.0000000000000E+00
(PID.TID 0000.0001) %MON forcing_qsw_min              =  -1.0363836394423E+02
(PID.TID 0000.0001) %MON forcing_qsw_mean             =  -1.3730546519843E+01
(PID.TID 0000.0001) %MON forcing_qsw_sd               =   2.4991625217585E+01
(PID.TID 0000.0001) %MON forcing_qsw_del2             =   1.6367444781905E-01
(PID.TID 0000.0001) %MON forcing_empmr_max            =   7.4835051782429E-03
(PID.TID 0000.0001) %MON forcing_empmr_min            =  -1.0757172852755E-01
(PID.TID 0000.0001) %MON forcing_empmr_mean           =  -3.1659192718601E-04
(PID.TID 0000.0001) %MON forcing_empmr_sd             =   4.7382028525020E-03
(PID.TID 0000.0001) %MON forcing_empmr_del2           =   1.8783235161480E-04
(PID.TID 0000.0001) %MON forcing_fu_max               =   3.8470568599081E-01
(PID.TID 0000.0001) %MON forcing_fu_min               =  -3.6380109782522E-01
(PID.TID 0000.0001) %MON forcing_fu_mean              =  -3.6802335222367E-03
(PID.TID 0000.0001) %MON forcing_fu_sd                =   6.3563309077513E-02
(PID.TID 0000.0001) %MON forcing_fu_del2              =   6.2172174937098E-04
(PID.TID 0000.0001) %MON forcing_fv_max               =   3.2034290949682E-01
(PID.TID 0000.0001) %MON forcing_fv_min               =  -2.8264657327064E-01
(PID.TID 0000.0001) %MON forcing_fv_mean              =  -1.3080838638684E-02
(PID.TID 0000.0001) %MON forcing_fv_sd                =   6.5293808995655E-02
(PID.TID 0000.0001) %MON forcing_fv_del2              =   5.5758405720090E-04
(PID.TID 0000.0001) %MON trAdv_CFL_u_max              =   3.1829051407059E-03
(PID.TID 0000.0001) %MON trAdv_CFL_v_max              =   4.2104677023593E-03
(PID.TID 0000.0001) %MON trAdv_CFL_w_max              =   1.9323248862497E-03
(PID.TID 0000.0001) %MON advcfl_uvel_max              =   3.1247753198342E-03
(PID.TID 0000.0001) %MON advcfl_vvel_max              =   3.2171725129435E-03
(PID.TID 0000.0001) %MON advcfl_wvel_max              =   3.7416253400886E-03
(PID.TID 0000.0001) %MON advcfl_W_hf_max              =   2.7200644377550E-03
(PID.TID 0000.0001) %MON pe_b_mean                    =   5.0938833048178E-04
(PID.TID 0000.0001) %MON ke_max                       =   4.2457846480534E-01
(PID.TID 0000.0001) %MON ke_mean                      =   1.6647464405116E-04
(PID.TID 0000.0001) %MON ke_vol                       =   1.3398109299082E+18
(PID.TID 0000.0001) %MON vort_r_min                   =  -4.1222196824186E-06
(PID.TID 0000.0001) %MON vort_r_max                   =   3.8732831715729E-06
(PID.TID 0000.0001) %MON vort_a_mean                  =  -2.0549865324846E-05
(PID.TID 0000.0001) %MON vort_a_sd                    =   7.5259533306363E-05
(PID.TID 0000.0001) %MON vort_p_mean                  =  -2.4783315009134E-05
(PID.TID 0000.0001) %MON vort_p_sd                    =   1.2811912911504E-04
(PID.TID 0000.0001) %MON surfExpan_theta_mean         =  -6.3543818312987E-06
(PID.TID 0000.0001) %MON surfExpan_salt_mean          =   9.0538756146059E-07
(PID.TID 0000.0001) // =======================================================
(PID.TID 0000.0001) // End MONITOR dynamic field statistics
(PID.TID 0000.0001) // =======================================================
(PID.TID 0000.0001) // =======================================================
(PID.TID 0000.0001) // Begin MONITOR SEAICE statistics
(PID.TID 0000.0001) // =======================================================
(PID.TID 0000.0001) %MON seaice_tsnumber              =                 72039
(PID.TID 0000.0001) %MON seaice_time_sec              =   6.4835100000000E+07
(PID.TID 0000.0001) %MON seaice_uice_max              =   2.5294097719501E-01
(PID.TID 0000.0001) %MON seaice_uice_min              =  -8.9609055977481E-01
(PID.TID 0000.0001) %MON seaice_uice_mean             =  -7.0037941489998E-03
(PID.TID 0000.0001) %MON seaice_uice_sd               =   5.8164990397465E-02
(PID.TID 0000.0001) %MON seaice_uice_del2             =   8.9004767047192E-04
(PID.TID 0000.0001) %MON seaice_vice_max              =   1.0053402698125E+00
(PID.TID 0000.0001) %MON seaice_vice_min              =  -8.6999023577236E-01
(PID.TID 0000.0001) %MON seaice_vice_mean             =  -1.4808993235812E-02
(PID.TID 0000.0001) %MON seaice_vice_sd               =   6.2589455636990E-02
(PID.TID 0000.0001) %MON seaice_vice_del2             =   1.2859774116094E-03
(PID.TID 0000.0001) %MON seaice_area_max              =   1.0000000000000E+00
(PID.TID 0000.0001) %MON seaice_area_min              =   0.0000000000000E+00
(PID.TID 0000.0001) %MON seaice_area_mean             =   6.9188915286143E-02
(PID.TID 0000.0001) %MON seaice_area_sd               =   2.3769683606929E-01
(PID.TID 0000.0001) %MON seaice_area_del2             =   1.7627178832059E-03
(PID.TID 0000.0001) %MON seaice_heff_max              =   8.5198310082473E+00
(PID.TID 0000.0001) %MON seaice_heff_min              =   0.0000000000000E+00
(PID.TID 0000.0001) %MON seaice_heff_mean             =   2.0613769362922E-01
(PID.TID 0000.0001) %MON seaice_heff_sd               =   9.7985752350839E-01
(PID.TID 0000.0001) %MON seaice_heff_del2             =   6.2398519537792E-03
(PID.TID 0000.0001) %MON seaice_hsnow_max             =   2.0317793440723E+00
(PID.TID 0000.0001) %MON seaice_hsnow_min             =   0.0000000000000E+00
(PID.TID 0000.0001) %MON seaice_hsnow_mean            =   2.2752376579078E-02
(PID.TID 0000.0001) %MON seaice_hsnow_sd              =   1.1949324590254E-01
(PID.TID 0000.0001) %MON seaice_hsnow_del2            =   1.4634296615427E-03
(PID.TID 0000.0001) // =======================================================
(PID.TID 0000.0001) // End MONITOR SEAICE statistics
(PID.TID 0000.0001) // =======================================================
 SEAICE_LSR: Residual Initial ipass,Uice,Vice=    1  3.03684212E-03  2.76650872E-03
 SEAICE_LSR (ipass=   1) iters,dU,Resid=     6  6.32289323E-05  1.04261321E-04
 SEAICE_LSR (ipass=   1) iters,dV,Resid=     6  4.21938490E-06  2.06128535E-05
 SEAICE_LSR: Residual Initial ipass,Uice,Vice=    2  2.14243221E-03  1.92830095E-03
 SEAICE_LSR (ipass=   2) iters,dU,Resid=     4  8.57451616E-05  1.47291701E-04
 SEAICE_LSR (ipass=   2) iters,dV,Resid=     4  3.20753379E-05  3.72055117E-05
 cg2d: Sum(rhs),rhsMax =  -3.44995686052735E+01  5.95295368746961E+01
(PID.TID 0000.0001)      cg2d_init_res =   2.44078015649368E-01
(PID.TID 0000.0001)      cg2d_iters(min,last) =      -1      10
(PID.TID 0000.0001)      cg2d_last_res =   6.78636232004930E-08
(PID.TID 0000.0001) // =======================================================
(PID.TID 0000.0001) // Begin MONITOR dynamic field statistics
(PID.TID 0000.0001) // =======================================================
(PID.TID 0000.0001) %MON time_tsnumber                =                 72040
(PID.TID 0000.0001) %MON time_secondsf                =   6.4836000000000E+07
(PID.TID 0000.0001) %MON dynstat_eta_max              =   2.6544377649282E+00
(PID.TID 0000.0001) %MON dynstat_eta_min              =  -1.6084630648617E+00
(PID.TID 0000.0001) %MON dynstat_eta_mean             =   2.3864225361487E-02
(PID.TID 0000.0001) %MON dynstat_eta_sd               =   6.1778784057813E-01
(PID.TID 0000.0001) %MON dynstat_eta_del2             =   2.0656983692445E-03
(PID.TID 0000.0001) %MON dynstat_uvel_max             =   3.5639982438370E-01
(PID.TID 0000.0001) %MON dynstat_uvel_min             =  -9.0376355358422E-01
(PID.TID 0000.0001) %MON dynstat_uvel_mean            =  -4.3600647308523E-04
(PID.TID 0000.0001) %MON dynstat_uvel_sd              =   1.3014663097193E-02
(PID.TID 0000.0001) %MON dynstat_uvel_del2            =   8.6662615191438E-05
(PID.TID 0000.0001) %MON dynstat_vvel_max             =   1.0291873675899E+00
(PID.TID 0000.0001) %MON dynstat_vvel_min             =  -8.4757364165547E-01
(PID.TID 0000.0001) %MON dynstat_vvel_mean            =  -2.2239922329690E-04
(PID.TID 0000.0001) %MON dynstat_vvel_sd              =   1.3760655254239E-02
(PID.TID 0000.0001) %MON dynstat_vvel_del2            =   1.1717208064914E-04
(PID.TID 0000.0001) %MON dynstat_wvel_max             =   2.0854131067190E-04
(PID.TID 0000.0001) %MON dynstat_wvel_min             =  -1.9855800790146E-04
(PID.TID 0000.0001) %MON dynstat_wvel_mean            =  -1.7678071696049E-08
(PID.TID 0000.0001) %MON dynstat_wvel_sd              =   8.1088311421119E-06
(PID.TID 0000.0001) %MON dynstat_wvel_del2            =   7.4389817547824E-08
(PID.TID 0000.0001) %MON dynstat_theta_max            =   3.0924201081589E+01
(PID.TID 0000.0001) %MON dynstat_theta_min            =  -3.0047423383961E+00
(PID.TID 0000.0001) %MON dynstat_theta_mean           =   3.9091356188947E+00
(PID.TID 0000.0001) %MON dynstat_theta_sd             =   4.5714140553931E+00
(PID.TID 0000.0001) %MON dynstat_theta_del2           =   2.6443949819873E-03
(PID.TID 0000.0001) %MON dynstat_salt_max             =   4.1354334228467E+01
(PID.TID 0000.0001) %MON dynstat_salt_min             =   1.8518773321150E+01
(PID.TID 0000.0001) %MON dynstat_salt_mean            =   3.4771997597501E+01
(PID.TID 0000.0001) %MON dynstat_salt_sd              =   5.3162977627982E-01
(PID.TID 0000.0001) %MON dynstat_salt_del2            =   9.7867447236214E-04
(PID.TID 0000.0001) %MON dynstat_sst_max              =   3.0924201081589E+01
(PID.TID 0000.0001) %MON dynstat_sst_min              =  -1.9388447310213E+00
(PID.TID 0000.0001) %MON dynstat_sst_mean             =   1.8108383633547E+01
(PID.TID 0000.0001) %MON dynstat_sst_sd               =   9.8102188146945E+00
(PID.TID 0000.0001) %MON dynstat_sst_del2             =   1.5078355298468E-02
(PID.TID 0000.0001) %MON dynstat_sss_max              =   4.1354334228467E+01
(PID.TID 0000.0001) %MON dynstat_sss_min              =   1.8751453921748E+01
(PID.TID 0000.0001) %MON dynstat_sss_mean             =   3.4627597944932E+01
(PID.TID 0000.0001) %MON dynstat_sss_sd               =   1.4743172421911E+00
(PID.TID 0000.0001) %MON dynstat_sss_del2             =   1.0660015729802E-02
(PID.TID 0000.0001) %MON forcing_qnet_max             =   2.4818520535779E+03
(PID.TID 0000.0001) %MON forcing_qnet_min             =  -1.5587159942831E+03
(PID.TID 0000.0001) %MON forcing_qnet_mean            =   1.9067877511705E+01
(PID.TID 0000.0001) %MON forcing_qnet_sd              =   2.2075032217477E+02
(PID.TID 0000.0001) %MON forcing_qnet_del2            =   4.8510593606574E+00
(PID.TID 0000.0001) %MON forcing_qsw_max              =   0.0000000000000E+00
(PID.TID 0000.0001) %MON forcing_qsw_min              =  -1.0358562639819E+02
(PID.TID 0000.0001) %MON forcing_qsw_mean             =  -1.3537746281925E+01
(PID.TID 0000.0001) %MON forcing_qsw_sd               =   2.4975609906955E+01
(PID.TID 0000.0001) %MON forcing_qsw_del2             =   1.6004324684328E-01
(PID.TID 0000.0001) %MON forcing_empmr_max            =   7.4063567444682E-03
(PID.TID 0000.0001) %MON forcing_empmr_min            =  -1.0646329820156E-01
(PID.TID 0000.0001) %MON forcing_empmr_mean           =  -3.1335454416331E-04
(PID.TID 0000.0001) %MON forcing_empmr_sd             =   4.6891786938035E-03
(PID.TID 0000.0001) %MON forcing_empmr_del2           =   1.8588222551008E-04
(PID.TID 0000.0001) %MON forcing_fu_max               =   3.8253718955415E-01
(PID.TID 0000.0001) %MON forcing_fu_min               =  -3.6285352493928E-01
(PID.TID 0000.0001) %MON forcing_fu_mean              =  -3.6481293822734E-03
(PID.TID 0000.0001) %MON forcing_fu_sd                =   6.3288924698642E-02
(PID.TID 0000.0001) %MON forcing_fu_del2              =   6.2103326801911E-04
(PID.TID 0000.0001) %MON forcing_fv_max               =   3.2301628258471E-01
(PID.TID 0000.0001) %MON forcing_fv_min               =  -2.8286284523100E-01
(PID.TID 0000.0001) %MON forcing_fv_mean              =  -1.3275693268351E-02
(PID.TID 0000.0001) %MON forcing_fv_sd                =   6.5151555904511E-02
(PID.TID 0000.0001) %MON forcing_fv_del2              =   5.5570288711402E-04
(PID.TID 0000.0001) %MON trAdv_CFL_u_max              =   3.0799695823281E-03
(PID.TID 0000.0001) %MON trAdv_CFL_v_max              =   3.8472905682771E-03
(PID.TID 0000.0001) %MON trAdv_CFL_w_max              =   2.0026765410715E-03
(PID.TID 0000.0001) %MON advcfl_uvel_max              =   3.0138405425881E-03
(PID.TID 0000.0001) %MON advcfl_vvel_max              =   3.0842372201684E-03
(PID.TID 0000.0001) %MON advcfl_wvel_max              =   3.7030712417934E-03
(PID.TID 0000.0001) %MON advcfl_W_hf_max              =   2.6813911937404E-03
(PID.TID 0000.0001) %MON pe_b_mean                    =   5.0919948671572E-04
(PID.TID 0000.0001) %MON ke_max                       =   3.6897649780443E-01
(PID.TID 0000.0001) %MON ke_mean                      =   1.6577486063325E-04
(PID.TID 0000.0001) %MON ke_vol                       =   1.3398110300852E+18
(PID.TID 0000.0001) %MON vort_r_min                   =  -3.7581132750738E-06
(PID.TID 0000.0001) %MON vort_r_max                   =   4.0127214185709E-06
(PID.TID 0000.0001) %MON vort_a_mean                  =  -2.0549865324846E-05
(PID.TID 0000.0001) %MON vort_a_sd                    =   7.5259542706941E-05
(PID.TID 0000.0001) %MON vort_p_mean                  =  -2.4783313408607E-05
(PID.TID 0000.0001) %MON vort_p_sd                    =   1.2811913844158E-04
(PID.TID 0000.0001) %MON surfExpan_theta_mean         =  -6.2804886123419E-06
(PID.TID 0000.0001) %MON surfExpan_salt_mean          =   9.0805052608040E-07
(PID.TID 0000.0001) // =======================================================
(PID.TID 0000.0001) // End MONITOR dynamic field statistics
(PID.TID 0000.0001) // =======================================================
(PID.TID 0000.0001) // =======================================================
(PID.TID 0000.0001) // Begin MONITOR SEAICE statistics
(PID.TID 0000.0001) // =======================================================
(PID.TID 0000.0001) %MON seaice_tsnumber              =                 72040
(PID.TID 0000.0001) %MON seaice_time_sec              =   6.4836000000000E+07
(PID.TID 0000.0001) %MON seaice_uice_max              =   2.5110753383048E-01
(PID.TID 0000.0001) %MON seaice_uice_min              =  -8.7595305607821E-01
(PID.TID 0000.0001) %MON seaice_uice_mean             =  -7.0631638304500E-03
(PID.TID 0000.0001) %MON seaice_uice_sd               =   5.7987958862642E-02
(PID.TID 0000.0001) %MON seaice_uice_del2             =   8.8926054432949E-04
(PID.TID 0000.0001) %MON seaice_vice_max              =   9.7203256686131E-01
(PID.TID 0000.0001) %MON seaice_vice_min              =  -7.8781166720936E-01
(PID.TID 0000.0001) %MON seaice_vice_mean             =  -1.4838031758404E-02
(PID.TID 0000.0001) %MON seaice_vice_sd               =   6.2136688091077E-02
(PID.TID 0000.0001) %MON seaice_vice_del2             =   1.2456528165830E-03
(PID.TID 0000.0001) %MON seaice_area_max              =   1.0000000000000E+00
(PID.TID 0000.0001) %MON seaice_area_min              =   0.0000000000000E+00
(PID.TID 0000.0001) %MON seaice_area_mean             =   6.9183892488447E-02
(PID.TID 0000.0001) %MON seaice_area_sd               =   2.3768096237565E-01
(PID.TID 0000.0001) %MON seaice_area_del2             =   1.7616450411052E-03
(PID.TID 0000.0001) %MON seaice_heff_max              =   8.5210568891305E+00
(PID.TID 0000.0001) %MON seaice_heff_min              =   0.0000000000000E+00
(PID.TID 0000.0001) %MON seaice_heff_mean             =   2.0613772692890E-01
(PID.TID 0000.0001) %MON seaice_heff_sd               =   9.7989015260361E-01
(PID.TID 0000.0001) %MON seaice_heff_del2             =   6.2399190796514E-03
(PID.TID 0000.0001) %MON seaice_hsnow_max             =   2.0317828386446E+00
(PID.TID 0000.0001) %MON seaice_hsnow_min             =   0.0000000000000E+00
(PID.TID 0000.0001) %MON seaice_hsnow_mean            =   2.2751759020070E-02
(PID.TID 0000.0001) %MON seaice_hsnow_sd              =   1.1949005519800E-01
(PID.TID 0000.0001) %MON seaice_hsnow_del2            =   1.4633449625248E-03
(PID.TID 0000.0001) // =======================================================
(PID.TID 0000.0001) // End MONITOR SEAICE statistics
(PID.TID 0000.0001) // =======================================================
 Compute Stats, Diag. #    211  SIarea    vol(   0 ): 1.456E+15  Parms: SM      M1      
 Compute Stats, Diag. #    214  SIheff    vol(   0 ): 1.456E+15  Parms: SM      M1      
 Compute Stats, Diag. #    216  SIhsnow   vol(   0 ): 1.456E+15  Parms: SM      M1      
 Compute Stats, Diag. #     83  sIceLoad  vol(   0 ): 1.456E+15  Parms: SM      U1      
 Compute Stats, Diag. #    220  SIuice    vol(   0 ): 1.383E+15  Parms: UU      M1      
 Compute Stats, Diag. #    221  SIvice    vol(   0 ): 1.391E+15  Parms: VV      M1      
 Compute Stats, Diag. #    222  SItaux    vol(   0 ): 1.383E+15  Parms: UU      U1      
 Compute Stats, Diag. #    223  SItauy    vol(   0 ): 1.391E+15  Parms: VV      U1      
 SEAICE_LSR: Residual Initial ipass,Uice,Vice=    1  3.02652399E-03  2.82888625E-03
 SEAICE_LSR (ipass=   1) iters,dU,Resid=     6  6.43494379E-05  9.79994536E-05
 SEAICE_LSR (ipass=   1) iters,dV,Resid=     6  4.09438528E-06  2.01756991E-05
 SEAICE_LSR: Residual Initial ipass,Uice,Vice=    2  2.19036725E-03  1.94060586E-03
 SEAICE_LSR (ipass=   2) iters,dU,Resid=     4  8.64000283E-05  1.39009445E-04
 SEAICE_LSR (ipass=   2) iters,dV,Resid=     4  3.19396360E-05  3.59294053E-05
 cg2d: Sum(rhs),rhsMax =  -3.36433362406036E+01  6.17352306823774E+01
(PID.TID 0000.0001)      cg2d_init_res =   2.25642680646860E-01
(PID.TID 0000.0001)      cg2d_iters(min,last) =      -1      10
(PID.TID 0000.0001)      cg2d_last_res =   4.85484859685443E-08
(PID.TID 0000.0001) // =======================================================
(PID.TID 0000.0001) // Begin MONITOR dynamic field statistics
(PID.TID 0000.0001) // =======================================================
(PID.TID 0000.0001) %MON time_tsnumber                =                 72041
(PID.TID 0000.0001) %MON time_secondsf                =   6.4836900000000E+07
(PID.TID 0000.0001) %MON dynstat_eta_max              =   2.7521686180485E+00
(PID.TID 0000.0001) %MON dynstat_eta_min              =  -1.6085018742193E+00
(PID.TID 0000.0001) %MON dynstat_eta_mean             =   2.4134222071311E-02
(PID.TID 0000.0001) %MON dynstat_eta_sd               =   6.1770821529893E-01
(PID.TID 0000.0001) %MON dynstat_eta_del2             =   2.1204668150140E-03
(PID.TID 0000.0001) %MON dynstat_uvel_max             =   3.6096560180643E-01
(PID.TID 0000.0001) %MON dynstat_uvel_min             =  -8.5495600549852E-01
(PID.TID 0000.0001) %MON dynstat_uvel_mean            =  -4.5904754796875E-04
(PID.TID 0000.0001) %MON dynstat_uvel_sd              =   1.2993257902521E-02
(PID.TID 0000.0001) %MON dynstat_uvel_del2            =   8.6611648883322E-05
(PID.TID 0000.0001) %MON dynstat_vvel_max             =   9.7450482324766E-01
(PID.TID 0000.0001) %MON dynstat_vvel_min             =  -7.4967823931570E-01
(PID.TID 0000.0001) %MON dynstat_vvel_mean            =  -1.7797275152161E-04
(PID.TID 0000.0001) %MON dynstat_vvel_sd              =   1.3722304562369E-02
(PID.TID 0000.0001) %MON dynstat_vvel_del2            =   1.1357612101594E-04
(PID.TID 0000.0001) %MON dynstat_wvel_max             =   2.0435284689510E-04
(PID.TID 0000.0001) %MON dynstat_wvel_min             =  -2.0421820900281E-04
(PID.TID 0000.0001) %MON dynstat_wvel_mean            =  -2.8169872032312E-08
(PID.TID 0000.0001) %MON dynstat_wvel_sd              =   8.0530450698915E-06
(PID.TID 0000.0001) %MON dynstat_wvel_del2            =   7.4422799757380E-08
(PID.TID 0000.0001) %MON dynstat_theta_max            =   3.0924333766881E+01
(PID.TID 0000.0001) %MON dynstat_theta_min            =  -3.0046030555524E+00
(PID.TID 0000.0001) %MON dynstat_theta_mean           =   3.9091361582048E+00
(PID.TID 0000.0001) %MON dynstat_theta_sd             =   4.5714165589713E+00
(PID.TID 0000.0001) %MON dynstat_theta_del2           =   2.6442632208872E-03
(PID.TID 0000.0001) %MON dynstat_salt_max             =   4.1353996492109E+01
(PID.TID 0000.0001) %MON dynstat_salt_min             =   1.8518783843597E+01
(PID.TID 0000.0001) %MON dynstat_salt_mean            =   3.4771994423358E+01
(PID.TID 0000.0001) %MON dynstat_salt_sd              =   5.3164805527325E-01
(PID.TID 0000.0001) %MON dynstat_salt_del2            =   9.8359311315019E-04
(PID.TID 0000.0001) %MON dynstat_sst_max              =   3.0924333766881E+01
(PID.TID 0000.0001) %MON dynstat_sst_min              =  -1.9386537473144E+00
(PID.TID 0000.0001) %MON dynstat_sst_mean             =   1.8108329811875E+01
(PID.TID 0000.0001) %MON dynstat_sst_sd               =   9.8103046229811E+00
(PID.TID 0000.0001) %MON dynstat_sst_del2             =   1.5075703491161E-02
(PID.TID 0000.0001) %MON dynstat_sss_max              =   4.1353996492109E+01
(PID.TID 0000.0001) %MON dynstat_sss_min              =   1.8751467199573E+01
(PID.TID 0000.0001) %MON dynstat_sss_mean             =   3.4627374392291E+01
(PID.TID 0000.0001) %MON dynstat_sss_sd               =   1.4747762709231E+00
(PID.TID 0000.0001) %MON dynstat_sss_del2             =   1.0731221317082E-02
(PID.TID 0000.0001) %MON forcing_qnet_max             =   2.4492405242256E+03
(PID.TID 0000.0001) %MON forcing_qnet_min             =  -1.5364411067626E+03
(PID.TID 0000.0001) %MON forcing_qnet_mean            =   2.0330722786474E+01
(PID.TID 0000.0001) %MON forcing_qnet_sd              =   2.1720075638803E+02
(PID.TID 0000.0001) %MON forcing_qnet_del2            =   4.7049924857942E+00
(PID.TID 0000.0001) %MON forcing_qsw_max              =   0.0000000000000E+00
(PID.TID 0000.0001) %MON forcing_qsw_min              =  -1.0600526133180E+02
(PID.TID 0000.0001) %MON forcing_qsw_mean             =  -1.3220127444767E+01
(PID.TID 0000.0001) %MON forcing_qsw_sd               =   2.4812074400461E+01
(PID.TID 0000.0001) %MON forcing_qsw_del2             =   1.5080211002390E-01
(PID.TID 0000.0001) %MON forcing_empmr_max            =   7.3299957439303E-03
(PID.TID 0000.0001) %MON forcing_empmr_min            =  -1.0536660254002E-01
(PID.TID 0000.0001) %MON forcing_empmr_mean           =  -3.1049621629680E-04
(PID.TID 0000.0001) %MON forcing_empmr_sd             =   4.6407532338824E-03
(PID.TID 0000.0001) %MON forcing_empmr_del2           =   1.8396113921798E-04
(PID.TID 0000.0001) %MON forcing_fu_max               =   3.8109553462946E-01
(PID.TID 0000.0001) %MON forcing_fu_min               =  -3.6194301055898E-01
(PID.TID 0000.0001) %MON forcing_fu_mean              =  -3.5801765175114E-03
(PID.TID 0000.0001) %MON forcing_fu_sd                =   6.3122667618071E-02
(PID.TID 0000.0001) %MON forcing_fu_del2              =   6.2008304784791E-04
(PID.TID 0000.0001) %MON forcing_fv_max               =   3.3024171191289E-01
(PID.TID 0000.0001) %MON forcing_fv_min               =  -2.8559165597736E-01
(PID.TID 0000.0001) %MON forcing_fv_mean              =  -1.3478029309184E-02
(PID.TID 0000.0001) %MON forcing_fv_sd                =   6.5089024197455E-02
(PID.TID 0000.0001) %MON forcing_fv_del2              =   5.5497966492638E-04
(PID.TID 0000.0001) %MON trAdv_CFL_u_max              =   2.9226167481768E-03
(PID.TID 0000.0001) %MON trAdv_CFL_v_max              =   3.4494239294009E-03
(PID.TID 0000.0001) %MON trAdv_CFL_w_max              =   2.0568999615530E-03
(PID.TID 0000.0001) %MON advcfl_uvel_max              =   2.8510787597948E-03
(PID.TID 0000.0001) %MON advcfl_vvel_max              =   2.9203662440325E-03
(PID.TID 0000.0001) %MON advcfl_wvel_max              =   3.6649253057397E-03
(PID.TID 0000.0001) %MON advcfl_W_hf_max              =   2.6275156296626E-03
(PID.TID 0000.0001) %MON pe_b_mean                    =   5.0908565814754E-04
(PID.TID 0000.0001) %MON ke_max                       =   3.1398800578869E-01
(PID.TID 0000.0001) %MON ke_mean                      =   1.6503128193311E-04
(PID.TID 0000.0001) %MON ke_vol                       =   1.3398111292379E+18
(PID.TID 0000.0001) %MON vort_r_min                   =  -3.3685670188712E-06
(PID.TID 0000.0001) %MON vort_r_max                   =   4.0564284259227E-06
(PID.TID 0000.0001) %MON vort_a_mean                  =  -2.0549865324846E-05
(PID.TID 0000.0001) %MON vort_a_sd                    =   7.5259552955403E-05
(PID.TID 0000.0001) %MON vort_p_mean                  =  -2.4783311821746E-05
(PID.TID 0000.0001) %MON vort_p_sd                    =   1.2811914286494E-04
(PID.TID 0000.0001) %MON surfExpan_theta_mean         =  -6.2157599895032E-06
(PID.TID 0000.0001) %MON surfExpan_salt_mean          =   9.1727636964932E-07
(PID.TID 0000.0001) // =======================================================
(PID.TID 0000.0001) // End MONITOR dynamic field statistics
(PID.TID 0000.0001) // =======================================================
(PID.TID 0000.0001) // =======================================================
(PID.TID 0000.0001) // Begin MONITOR SEAICE statistics
(PID.TID 0000.0001) // =======================================================
(PID.TID 0000.0001) %MON seaice_tsnumber              =                 72041
(PID.TID 0000.0001) %MON seaice_time_sec              =   6.4836900000000E+07
(PID.TID 0000.0001) %MON seaice_uice_max              =   2.4932823338436E-01
(PID.TID 0000.0001) %MON seaice_uice_min              =  -8.4858425194624E-01
(PID.TID 0000.0001) %MON seaice_uice_mean             =  -7.0954566994425E-03
(PID.TID 0000.0001) %MON seaice_uice_sd               =   5.7733615379943E-02
(PID.TID 0000.0001) %MON seaice_uice_del2             =   8.8820451792606E-04
(PID.TID 0000.0001) %MON seaice_vice_max              =   9.2674284074403E-01
(PID.TID 0000.0001) %MON seaice_vice_min              =  -6.9520690973440E-01
(PID.TID 0000.0001) %MON seaice_vice_mean             =  -1.4865014603757E-02
(PID.TID 0000.0001) %MON seaice_vice_sd               =   6.1712172056420E-02
(PID.TID 0000.0001) %MON seaice_vice_del2             =   1.1997434581195E-03
(PID.TID 0000.0001) %MON seaice_area_max              =   1.0000000000000E+00
(PID.TID 0000.0001) %MON seaice_area_min              =   0.0000000000000E+00
(PID.TID 0000.0001) %MON seaice_area_mean             =   6.9178733534301E-02
(PID.TID 0000.0001) %MON seaice_area_sd               =   2.3766491032185E-01
(PID.TID 0000.0001) %MON seaice_area_del2             =   1.7605637247109E-03
(PID.TID 0000.0001) %MON seaice_heff_max              =   8.5222470612194E+00
(PID.TID 0000.0001) %MON seaice_heff_min              =   0.0000000000000E+00
(PID.TID 0000.0001) %MON seaice_heff_mean             =   2.0613725951324E-01
(PID.TID 0000.0001) %MON seaice_heff_sd               =   9.7992086583413E-01
(PID.TID 0000.0001) %MON seaice_heff_del2             =   6.2399705659743E-03
(PID.TID 0000.0001) %MON seaice_hsnow_max             =   2.0317868746545E+00
(PID.TID 0000.0001) %MON seaice_hsnow_min             =   0.0000000000000E+00
(PID.TID 0000.0001) %MON seaice_hsnow_mean            =   2.2751157077474E-02
(PID.TID 0000.0001) %MON seaice_hsnow_sd              =   1.1948686215629E-01
(PID.TID 0000.0001) %MON seaice_hsnow_del2            =   1.4632590043315E-03
(PID.TID 0000.0001) // =======================================================
(PID.TID 0000.0001) // End MONITOR SEAICE statistics
(PID.TID 0000.0001) // =======================================================
 Computing Diagnostic #    211  SIarea       Counter:       1   Parms: SM      M1      
 Computing Diagnostic #    214  SIheff       Counter:       1   Parms: SM      M1      
 Computing Diagnostic #    216  SIhsnow      Counter:       1   Parms: SM      M1      
 Computing Diagnostic #     83  sIceLoad     Counter:       1   Parms: SM      U1      
 Computing Diagnostic #    220  SIuice       Counter:       1   Parms: UU      M1      
           Vector  Mate for  SIuice       Diagnostic #    221  SIvice   exists 
 Computing Diagnostic #    221  SIvice       Counter:       1   Parms: VV      M1      
           Vector  Mate for  SIvice       Diagnostic #    220  SIuice   exists 
 Computing Diagnostic #    222  SItaux       Counter:       1   Parms: UU      U1      
           Vector  Mate for  SItaux       Diagnostic #    223  SItauy   exists 
 Computing Diagnostic #    223  SItauy       Counter:       1   Parms: VV      U1      
           Vector  Mate for  SItauy       Diagnostic #    222  SItaux   exists 
 Computing Diagnostic #      1  SDIAG1       Counter:       1   Parms: SM      L1      
 Computing Diagnostic #    282  SIareaN      Counter:       1   Parms: SM      MX      
 Computing Diagnostic #    281  SIheffN      Counter:       1   Parms: SM      MX      
 Computing Diagnostic #    283  SIhsnowN     Counter:       1   Parms: SM      MX      
 SEAICE_LSR: Residual Initial ipass,Uice,Vice=    1  3.19474933E-03  2.84556149E-03
 SEAICE_LSR (ipass=   1) iters,dU,Resid=     6  5.99480480E-05  8.88278684E-05
 SEAICE_LSR (ipass=   1) iters,dV,Resid=     6  2.35588482E-05  2.00685512E-05
 SEAICE_LSR: Residual Initial ipass,Uice,Vice=    2  2.33376133E-03  1.92866174E-03
 SEAICE_LSR (ipass=   2) iters,dU,Resid=     4  7.62125228E-05  1.24427681E-04
 SEAICE_LSR (ipass=   2) iters,dV,Resid=     4  4.13846191E-05  3.55625993E-05
 cg2d: Sum(rhs),rhsMax =  -3.29759629094699E+01  6.36825722375311E+01
(PID.TID 0000.0001)      cg2d_init_res =   2.08587975860648E-01
(PID.TID 0000.0001)      cg2d_iters(min,last) =      -1      10
(PID.TID 0000.0001)      cg2d_last_res =   4.51891283896844E-08
(PID.TID 0000.0001) // =======================================================
(PID.TID 0000.0001) // Begin MONITOR dynamic field statistics
(PID.TID 0000.0001) // =======================================================
(PID.TID 0000.0001) %MON time_tsnumber                =                 72042
(PID.TID 0000.0001) %MON time_secondsf                =   6.4837800000000E+07
(PID.TID 0000.0001) %MON dynstat_eta_max              =   2.8384240058652E+00
(PID.TID 0000.0001) %MON dynstat_eta_min              =  -1.6083682977671E+00
(PID.TID 0000.0001) %MON dynstat_eta_mean             =   2.4401653510135E-02
(PID.TID 0000.0001) %MON dynstat_eta_sd               =   6.1766039030365E-01
(PID.TID 0000.0001) %MON dynstat_eta_del2             =   2.1875744145994E-03
(PID.TID 0000.0001) %MON dynstat_uvel_max             =   3.6383225380740E-01
(PID.TID 0000.0001) %MON dynstat_uvel_min             =  -8.0356284580694E-01
(PID.TID 0000.0001) %MON dynstat_uvel_mean            =  -4.7891656914429E-04
(PID.TID 0000.0001) %MON dynstat_uvel_sd              =   1.2963275892908E-02
(PID.TID 0000.0001) %MON dynstat_uvel_del2            =   8.6593425188373E-05
(PID.TID 0000.0001) %MON dynstat_vvel_max             =   9.1089306316625E-01
(PID.TID 0000.0001) %MON dynstat_vvel_min             =  -6.4380237812747E-01
(PID.TID 0000.0001) %MON dynstat_vvel_mean            =  -1.3094853742183E-04
(PID.TID 0000.0001) %MON dynstat_vvel_sd              =   1.3691069877462E-02
(PID.TID 0000.0001) %MON dynstat_vvel_del2            =   1.0967579022355E-04
(PID.TID 0000.0001) %MON dynstat_wvel_max             =   1.9924743546920E-04
(PID.TID 0000.0001) %MON dynstat_wvel_min             =  -2.0873798722369E-04
(PID.TID 0000.0001) %MON dynstat_wvel_mean            =  -4.2404831264697E-08
(PID.TID 0000.0001) %MON dynstat_wvel_sd              =   8.0027177114435E-06
(PID.TID 0000.0001) %MON dynstat_wvel_del2            =   7.4495081382037E-08
(PID.TID 0000.0001) %MON dynstat_theta_max            =   3.0924460000859E+01
(PID.TID 0000.0001) %MON dynstat_theta_min            =  -3.0044762272498E+00
(PID.TID 0000.0001) %MON dynstat_theta_mean           =   3.9091367124343E+00
(PID.TID 0000.0001) %MON dynstat_theta_sd             =   4.5714187941258E+00
(PID.TID 0000.0001) %MON dynstat_theta_del2           =   2.6441259858643E-03
(PID.TID 0000.0001) %MON dynstat_salt_max             =   4.1353652683066E+01
(PID.TID 0000.0001) %MON dynstat_salt_min             =   1.8518794360579E+01
(PID.TID 0000.0001) %MON dynstat_salt_mean            =   3.4771991336121E+01
(PID.TID 0000.0001) %MON dynstat_salt_sd              =   5.3166610647954E-01
(PID.TID 0000.0001) %MON dynstat_salt_del2            =   9.8845259037349E-04
(PID.TID 0000.0001) %MON dynstat_sst_max              =   3.0924460000859E+01
(PID.TID 0000.0001) %MON dynstat_sst_min              =  -1.9384634770558E+00
(PID.TID 0000.0001) %MON dynstat_sst_mean             =   1.8108278529439E+01
(PID.TID 0000.0001) %MON dynstat_sst_sd               =   9.8103807868717E+00
(PID.TID 0000.0001) %MON dynstat_sst_del2             =   1.5072554602757E-02
(PID.TID 0000.0001) %MON dynstat_sss_max              =   4.1353652683066E+01
(PID.TID 0000.0001) %MON dynstat_sss_min              =   1.8751482742013E+01
(PID.TID 0000.0001) %MON dynstat_sss_mean             =   3.4627157798430E+01
(PID.TID 0000.0001) %MON dynstat_sss_sd               =   1.4752301360428E+00
(PID.TID 0000.0001) %MON dynstat_sss_del2             =   1.0801410927311E-02
(PID.TID 0000.0001) %MON forcing_qnet_max             =   2.4190957445217E+03
(PID.TID 0000.0001) %MON forcing_qnet_min             =  -1.0723515625000E+04
(PID.TID 0000.0001) %MON forcing_qnet_mean            =   1.9815835203309E+01
(PID.TID 0000.0001) %MON forcing_qnet_sd              =   2.5919545861638E+02
(PID.TID 0000.0001) %MON forcing_qnet_del2            =   8.8853471962864E+00
(PID.TID 0000.0001) %MON forcing_qsw_max              =   0.0000000000000E+00
(PID.TID 0000.0001) %MON forcing_qsw_min              =  -1.0642772980118E+02
(PID.TID 0000.0001) %MON forcing_qsw_mean             =  -1.3153694156404E+01
(PID.TID 0000.0001) %MON forcing_qsw_sd               =   2.4770171860508E+01
(PID.TID 0000.0001) %MON forcing_qsw_del2             =   1.4848862838488E-01
(PID.TID 0000.0001) %MON forcing_empmr_max            =   7.2544217109680E-03
(PID.TID 0000.0001) %MON forcing_empmr_min            =  -1.0428082942963E-01
(PID.TID 0000.0001) %MON forcing_empmr_mean           =  -3.0754615464759E-04
(PID.TID 0000.0001) %MON forcing_empmr_sd             =   4.5929533602608E-03
(PID.TID 0000.0001) %MON forcing_empmr_del2           =   1.8205932646822E-04
(PID.TID 0000.0001) %MON forcing_fu_max               =   3.7998291959608E-01
(PID.TID 0000.0001) %MON forcing_fu_min               =  -3.6180599315244E-01
(PID.TID 0000.0001) %MON forcing_fu_mean              =  -3.5492942625460E-03
(PID.TID 0000.0001) %MON forcing_fu_sd                =   6.2936111769684E-02
(PID.TID 0000.0001) %MON forcing_fu_del2              =   6.1932045069328E-04
(PID.TID 0000.0001) %MON forcing_fv_max               =   3.2894360473873E-01
(PID.TID 0000.0001) %MON forcing_fv_min               =  -2.8802178399230E-01
(PID.TID 0000.0001) %MON forcing_fv_mean              =  -1.3697130517366E-02
(PID.TID 0000.0001) %MON forcing_fv_sd                =   6.4977842840836E-02
(PID.TID 0000.0001) %MON forcing_fv_del2              =   5.5339808127406E-04
(PID.TID 0000.0001) %MON trAdv_CFL_u_max              =   2.7155766581143E-03
(PID.TID 0000.0001) %MON trAdv_CFL_v_max              =   3.0239567605475E-03
(PID.TID 0000.0001) %MON trAdv_CFL_w_max              =   2.0945163144363E-03
(PID.TID 0000.0001) %MON advcfl_uvel_max              =   2.6416151070196E-03
(PID.TID 0000.0001) %MON advcfl_vvel_max              =   2.7297364673156E-03
(PID.TID 0000.0001) %MON advcfl_wvel_max              =   3.6271592845087E-03
(PID.TID 0000.0001) %MON advcfl_W_hf_max              =   2.5618530232381E-03
(PID.TID 0000.0001) %MON pe_b_mean                    =   5.0902420552992E-04
(PID.TID 0000.0001) %MON ke_max                       =   2.7055534429547E-01
(PID.TID 0000.0001) %MON ke_mean                      =   1.6427828898646E-04
(PID.TID 0000.0001) %MON ke_vol                       =   1.3398112274861E+18
(PID.TID 0000.0001) %MON vort_r_min                   =  -2.9579883027210E-06
(PID.TID 0000.0001) %MON vort_r_max                   =   4.0072317755722E-06
(PID.TID 0000.0001) %MON vort_a_mean                  =  -2.0549865324846E-05
(PID.TID 0000.0001) %MON vort_a_sd                    =   7.5259563890285E-05
(PID.TID 0000.0001) %MON vort_p_mean                  =  -2.4783310240331E-05
(PID.TID 0000.0001) %MON vort_p_sd                    =   1.2811914220260E-04
(PID.TID 0000.0001) %MON surfExpan_theta_mean         =  -6.1561569936282E-06
(PID.TID 0000.0001) %MON surfExpan_salt_mean          =   9.3180611600664E-07
(PID.TID 0000.0001) // =======================================================
(PID.TID 0000.0001) // End MONITOR dynamic field statistics
(PID.TID 0000.0001) // =======================================================
(PID.TID 0000.0001) // =======================================================
(PID.TID 0000.0001) // Begin MONITOR SEAICE statistics
(PID.TID 0000.0001) // =======================================================
(PID.TID 0000.0001) %MON seaice_tsnumber              =                 72042
(PID.TID 0000.0001) %MON seaice_time_sec              =   6.4837800000000E+07
(PID.TID 0000.0001) %MON seaice_uice_max              =   2.4790189658202E-01
(PID.TID 0000.0001) %MON seaice_uice_min              =  -8.1401237721922E-01
(PID.TID 0000.0001) %MON seaice_uice_mean             =  -7.1151768732105E-03
(PID.TID 0000.0001) %MON seaice_uice_sd               =   5.7421268991338E-02
(PID.TID 0000.0001) %MON seaice_uice_del2             =   8.8640256560586E-04
(PID.TID 0000.0001) %MON seaice_vice_max              =   8.7111161285425E-01
(PID.TID 0000.0001) %MON seaice_vice_min              =  -5.9460466057835E-01
(PID.TID 0000.0001) %MON seaice_vice_mean             =  -1.4884644801225E-02
(PID.TID 0000.0001) %MON seaice_vice_sd               =   6.1341303529212E-02
(PID.TID 0000.0001) %MON seaice_vice_del2             =   1.1496549643406E-03
(PID.TID 0000.0001) %MON seaice_area_max              =   1.0000000000000E+00
(PID.TID 0000.0001) %MON seaice_area_min              =   0.0000000000000E+00
(PID.TID 0000.0001) %MON seaice_area_mean             =   6.9173474666590E-02
(PID.TID 0000.0001) %MON seaice_area_sd               =   2.3764878483236E-01
(PID.TID 0000.0001) %MON seaice_area_del2             =   1.7594950702851E-03
(PID.TID 0000.0001) %MON seaice_heff_max              =   8.5234040742926E+00
(PID.TID 0000.0001) %MON seaice_heff_min              =   0.0000000000000E+00
(PID.TID 0000.0001) %MON seaice_heff_mean             =   2.0613639185527E-01
(PID.TID 0000.0001) %MON seaice_heff_sd               =   9.7994976233829E-01
(PID.TID 0000.0001) %MON seaice_heff_del2             =   6.2400130754634E-03
(PID.TID 0000.0001) %MON seaice_hsnow_max             =   2.0317914105380E+00
(PID.TID 0000.0001) %MON seaice_hsnow_min             =   0.0000000000000E+00
(PID.TID 0000.0001) %MON seaice_hsnow_mean            =   2.2750544748033E-02
(PID.TID 0000.0001) %MON seaice_hsnow_sd              =   1.1948358582029E-01
(PID.TID 0000.0001) %MON seaice_hsnow_del2            =   1.4631716365357E-03
(PID.TID 0000.0001) // =======================================================
(PID.TID 0000.0001) // End MONITOR SEAICE statistics
(PID.TID 0000.0001) // =======================================================
 SEAICE_LSR: Residual Initial ipass,Uice,Vice=    1  3.19201742E-03  2.90164439E-03
 SEAICE_LSR (ipass=   1) iters,dU,Resid=     6  5.67133726E-05  8.00513230E-05
 SEAICE_LSR (ipass=   1) iters,dV,Resid=     6  3.50397178E-05  1.95394305E-05
 SEAICE_LSR: Residual Initial ipass,Uice,Vice=    2  2.32292723E-03  1.94532043E-03
 SEAICE_LSR (ipass=   2) iters,dU,Resid=     4  7.21975252E-05  1.13722694E-04
 SEAICE_LSR (ipass=   2) iters,dV,Resid=     4  6.09121133E-05  3.48304360E-05
 cg2d: Sum(rhs),rhsMax =  -3.24866503087295E+01  6.53449803386265E+01
(PID.TID 0000.0001)      cg2d_init_res =   1.92763099970872E-01
(PID.TID 0000.0001)      cg2d_iters(min,last) =      -1      10
(PID.TID 0000.0001)      cg2d_last_res =   3.38455468900440E-08
(PID.TID 0000.0001) // =======================================================
(PID.TID 0000.0001) // Begin MONITOR dynamic field statistics
(PID.TID 0000.0001) // =======================================================
(PID.TID 0000.0001) %MON time_tsnumber                =                 72043
(PID.TID 0000.0001) %MON time_secondsf                =   6.4838700000000E+07
(PID.TID 0000.0001) %MON dynstat_eta_max              =   2.9120269268548E+00
(PID.TID 0000.0001) %MON dynstat_eta_min              =  -1.6080181006671E+00
(PID.TID 0000.0001) %MON dynstat_eta_mean             =   2.4667113862264E-02
(PID.TID 0000.0001) %MON dynstat_eta_sd               =   6.1762827319931E-01
(PID.TID 0000.0001) %MON dynstat_eta_del2             =   2.2592968343999E-03
(PID.TID 0000.0001) %MON dynstat_uvel_max             =   3.6495993961624E-01
(PID.TID 0000.0001) %MON dynstat_uvel_min             =  -7.5268040129541E-01
(PID.TID 0000.0001) %MON dynstat_uvel_mean            =  -4.9555510955259E-04
(PID.TID 0000.0001) %MON dynstat_uvel_sd              =   1.2926439653399E-02
(PID.TID 0000.0001) %MON dynstat_uvel_del2            =   8.6648690963705E-05
(PID.TID 0000.0001) %MON dynstat_vvel_max             =   8.3979906855838E-01
(PID.TID 0000.0001) %MON dynstat_vvel_min             =  -5.3192816703781E-01
(PID.TID 0000.0001) %MON dynstat_vvel_mean            =  -8.1957866614397E-05
(PID.TID 0000.0001) %MON dynstat_vvel_sd              =   1.3668137512371E-02
(PID.TID 0000.0001) %MON dynstat_vvel_del2            =   1.0559950077050E-04
(PID.TID 0000.0001) %MON dynstat_wvel_max             =   1.9350808007671E-04
(PID.TID 0000.0001) %MON dynstat_wvel_min             =  -2.1203763223416E-04
(PID.TID 0000.0001) %MON dynstat_wvel_mean            =  -6.0701848969105E-08
(PID.TID 0000.0001) %MON dynstat_wvel_sd              =   7.9587249701043E-06
(PID.TID 0000.0001) %MON dynstat_wvel_del2            =   7.4614306099083E-08
(PID.TID 0000.0001) %MON dynstat_theta_max            =   3.0924580285676E+01
(PID.TID 0000.0001) %MON dynstat_theta_min            =  -3.0043672409519E+00
(PID.TID 0000.0001) %MON dynstat_theta_mean           =   3.9091370496110E+00
(PID.TID 0000.0001) %MON dynstat_theta_sd             =   4.5714203487921E+00
(PID.TID 0000.0001) %MON dynstat_theta_del2           =   2.6440059731965E-03
(PID.TID 0000.0001) %MON dynstat_salt_max             =   4.1353303866132E+01
(PID.TID 0000.0001) %MON dynstat_salt_min             =   1.8518804867322E+01
(PID.TID 0000.0001) %MON dynstat_salt_mean            =   3.4771988261608E+01
(PID.TID 0000.0001) %MON dynstat_salt_sd              =   5.3168401852681E-01
(PID.TID 0000.0001) %MON dynstat_salt_del2            =   9.9324030350429E-04
(PID.TID 0000.0001) %MON dynstat_sst_max              =   3.0924580285676E+01
(PID.TID 0000.0001) %MON dynstat_sst_min              =  -1.9382762618899E+00
(PID.TID 0000.0001) %MON dynstat_sst_mean             =   1.8108209389281E+01
(PID.TID 0000.0001) %MON dynstat_sst_sd               =   9.8104584524055E+00
(PID.TID 0000.0001) %MON dynstat_sst_del2             =   1.5070215423683E-02
(PID.TID 0000.0001) %MON dynstat_sss_max              =   4.1353303866132E+01
(PID.TID 0000.0001) %MON dynstat_sss_min              =   1.8751500685407E+01
(PID.TID 0000.0001) %MON dynstat_sss_mean             =   3.4626941858034E+01
(PID.TID 0000.0001) %MON dynstat_sss_sd               =   1.4756794281292E+00
(PID.TID 0000.0001) %MON dynstat_sss_del2             =   1.0870489286636E-02
(PID.TID 0000.0001) %MON forcing_qnet_max             =   2.3881032604050E+03
(PID.TID 0000.0001) %MON forcing_qnet_min             =  -1.7813986816406E+03
(PID.TID 0000.0001) %MON forcing_qnet_mean            =   2.3403540067683E+01
(PID.TID 0000.0001) %MON forcing_qnet_sd              =   2.1004920063872E+02
(PID.TID 0000.0001) %MON forcing_qnet_del2            =   4.4758974409014E+00
(PID.TID 0000.0001) %MON forcing_qsw_max              =   0.0000000000000E+00
(PID.TID 0000.0001) %MON forcing_qsw_min              =  -1.0687790880462E+02
(PID.TID 0000.0001) %MON forcing_qsw_mean             =  -1.3070751383374E+01
(PID.TID 0000.0001) %MON forcing_qsw_sd               =   2.4666923871015E+01
(PID.TID 0000.0001) %MON forcing_qsw_del2             =   1.4614969519401E-01
(PID.TID 0000.0001) %MON forcing_empmr_max            =   7.1796346455812E-03
(PID.TID 0000.0001) %MON forcing_empmr_min            =  -1.0320679843426E-01
(PID.TID 0000.0001) %MON forcing_empmr_mean           =  -3.0527940494836E-04
(PID.TID 0000.0001) %MON forcing_empmr_sd             =   4.5455851505401E-03
(PID.TID 0000.0001) %MON forcing_empmr_del2           =   1.8017318403126E-04
(PID.TID 0000.0001) %MON forcing_fu_max               =   3.7626666893192E-01
(PID.TID 0000.0001) %MON forcing_fu_min               =  -3.6196214899508E-01
(PID.TID 0000.0001) %MON forcing_fu_mean              =  -3.5778730787145E-03
(PID.TID 0000.0001) %MON forcing_fu_sd                =   6.2591339077848E-02
(PID.TID 0000.0001) %MON forcing_fu_del2              =   6.1726781082074E-04
(PID.TID 0000.0001) %MON forcing_fv_max               =   3.3508819212996E-01
(PID.TID 0000.0001) %MON forcing_fv_min               =  -2.8920159392744E-01
(PID.TID 0000.0001) %MON forcing_fv_mean              =  -1.3863792669757E-02
(PID.TID 0000.0001) %MON forcing_fv_sd                =   6.4857922796189E-02
(PID.TID 0000.0001) %MON forcing_fv_del2              =   5.5233642289613E-04
(PID.TID 0000.0001) %MON trAdv_CFL_u_max              =   2.4642651115912E-03
(PID.TID 0000.0001) %MON trAdv_CFL_v_max              =   2.5782484087501E-03
(PID.TID 0000.0001) %MON trAdv_CFL_w_max              =   2.1148595306631E-03
(PID.TID 0000.0001) %MON advcfl_uvel_max              =   2.3910615145932E-03
(PID.TID 0000.0001) %MON advcfl_vvel_max              =   2.5166841590527E-03
(PID.TID 0000.0001) %MON advcfl_wvel_max              =   3.5898016846698E-03
(PID.TID 0000.0001) %MON advcfl_W_hf_max              =   2.4880421746270E-03
(PID.TID 0000.0001) %MON pe_b_mean                    =   5.0898866862263E-04
(PID.TID 0000.0001) %MON ke_max                       =   2.2605080511726E-01
(PID.TID 0000.0001) %MON ke_mean                      =   1.6355166349207E-04
(PID.TID 0000.0001) %MON ke_vol                       =   1.3398113248008E+18
(PID.TID 0000.0001) %MON vort_r_min                   =  -2.5310336788692E-06
(PID.TID 0000.0001) %MON vort_r_max                   =   3.8697202868008E-06
(PID.TID 0000.0001) %MON vort_a_mean                  =  -2.0549865324846E-05
(PID.TID 0000.0001) %MON vort_a_sd                    =   7.5259575341888E-05
(PID.TID 0000.0001) %MON vort_p_mean                  =  -2.4783308657370E-05
(PID.TID 0000.0001) %MON vort_p_sd                    =   1.2811913671996E-04
(PID.TID 0000.0001) %MON surfExpan_theta_mean         =  -6.1341465477497E-06
(PID.TID 0000.0001) %MON surfExpan_salt_mean          =   9.5122009359919E-07
(PID.TID 0000.0001) // =======================================================
(PID.TID 0000.0001) // End MONITOR dynamic field statistics
(PID.TID 0000.0001) // =======================================================
(PID.TID 0000.0001) // =======================================================
(PID.TID 0000.0001) // Begin MONITOR SEAICE statistics
(PID.TID 0000.0001) // =======================================================
(PID.TID 0000.0001) %MON seaice_tsnumber              =                 72043
(PID.TID 0000.0001) %MON seaice_time_sec              =   6.4838700000000E+07
(PID.TID 0000.0001) %MON seaice_uice_max              =   2.4656792148041E-01
(PID.TID 0000.0001) %MON seaice_uice_min              =  -7.7241846669719E-01
(PID.TID 0000.0001) %MON seaice_uice_mean             =  -7.1066325929854E-03
(PID.TID 0000.0001) %MON seaice_uice_sd               =   5.7034386271712E-02
(PID.TID 0000.0001) %MON seaice_uice_del2             =   8.8469415725064E-04
(PID.TID 0000.0001) %MON seaice_vice_max              =   8.0651507052526E-01
(PID.TID 0000.0001) %MON seaice_vice_min              =  -4.8633911027095E-01
(PID.TID 0000.0001) %MON seaice_vice_mean             =  -1.4903666788112E-02
(PID.TID 0000.0001) %MON seaice_vice_sd               =   6.1034968334778E-02
(PID.TID 0000.0001) %MON seaice_vice_del2             =   1.0970973408121E-03
(PID.TID 0000.0001) %MON seaice_area_max              =   1.0000000000000E+00
(PID.TID 0000.0001) %MON seaice_area_min              =   0.0000000000000E+00
(PID.TID 0000.0001) %MON seaice_area_mean             =   6.9168130061272E-02
(PID.TID 0000.0001) %MON seaice_area_sd               =   2.3763254747667E-01
(PID.TID 0000.0001) %MON seaice_area_del2             =   1.7584243525523E-03
(PID.TID 0000.0001) %MON seaice_heff_max              =   8.5245269197211E+00
(PID.TID 0000.0001) %MON seaice_heff_min              =   0.0000000000000E+00
(PID.TID 0000.0001) %MON seaice_heff_mean             =   2.0613513914376E-01
(PID.TID 0000.0001) %MON seaice_heff_sd               =   9.7997689997093E-01
(PID.TID 0000.0001) %MON seaice_heff_del2             =   6.2400427886985E-03
(PID.TID 0000.0001) %MON seaice_hsnow_max             =   2.0317957966006E+00
(PID.TID 0000.0001) %MON seaice_hsnow_min             =   0.0000000000000E+00
(PID.TID 0000.0001) %MON seaice_hsnow_mean            =   2.2749913863571E-02
(PID.TID 0000.0001) %MON seaice_hsnow_sd              =   1.1948028467095E-01
(PID.TID 0000.0001) %MON seaice_hsnow_del2            =   1.4630819764500E-03
(PID.TID 0000.0001) // =======================================================
(PID.TID 0000.0001) // End MONITOR SEAICE statistics
(PID.TID 0000.0001) // =======================================================
 SEAICE_LSR: Residual Initial ipass,Uice,Vice=    1  3.05828348E-03  2.92550277E-03
 SEAICE_LSR (ipass=   1) iters,dU,Resid=     6  5.70214785E-05  7.47293513E-05
 SEAICE_LSR (ipass=   1) iters,dV,Resid=     6  4.25202852E-05  1.93334696E-05
 SEAICE_LSR: Residual Initial ipass,Uice,Vice=    2  2.24553912E-03  2.03306124E-03
 SEAICE_LSR (ipass=   2) iters,dU,Resid=     4  7.17929869E-05  1.05908634E-04
 SEAICE_LSR (ipass=   2) iters,dV,Resid=     4  7.79178907E-05  3.46781571E-05
 cg2d: Sum(rhs),rhsMax =  -3.21662116981092E+01  6.66988847408753E+01
(PID.TID 0000.0001)      cg2d_init_res =   1.78202567770214E-01
(PID.TID 0000.0001)      cg2d_iters(min,last) =      -1      10
(PID.TID 0000.0001)      cg2d_last_res =   5.72675220187153E-08
(PID.TID 0000.0001) // =======================================================
(PID.TID 0000.0001) // Begin MONITOR dynamic field statistics
(PID.TID 0000.0001) // =======================================================
(PID.TID 0000.0001) %MON time_tsnumber                =                 72044
(PID.TID 0000.0001) %MON time_secondsf                =   6.4839600000000E+07
(PID.TID 0000.0001) %MON dynstat_eta_max              =   2.9719333703167E+00
(PID.TID 0000.0001) %MON dynstat_eta_min              =  -1.6074173261928E+00
(PID.TID 0000.0001) %MON dynstat_eta_mean             =   2.4929849765704E-02
(PID.TID 0000.0001) %MON dynstat_eta_sd               =   6.1759320283629E-01
(PID.TID 0000.0001) %MON dynstat_eta_del2             =   2.3286476662903E-03
(PID.TID 0000.0001) %MON dynstat_uvel_max             =   3.6432432158756E-01
(PID.TID 0000.0001) %MON dynstat_uvel_min             =  -6.9562215961293E-01
(PID.TID 0000.0001) %MON dynstat_uvel_mean            =  -5.0891861880027E-04
(PID.TID 0000.0001) %MON dynstat_uvel_sd              =   1.2885081567553E-02
(PID.TID 0000.0001) %MON dynstat_uvel_del2            =   8.6814296589093E-05
(PID.TID 0000.0001) %MON dynstat_vvel_max             =   7.6269883256595E-01
(PID.TID 0000.0001) %MON dynstat_vvel_min             =  -4.1607052298027E-01
(PID.TID 0000.0001) %MON dynstat_vvel_mean            =  -3.1719326837339E-05
(PID.TID 0000.0001) %MON dynstat_vvel_sd              =   1.3654164643559E-02
(PID.TID 0000.0001) %MON dynstat_vvel_del2            =   1.0149941810889E-04
(PID.TID 0000.0001) %MON dynstat_wvel_max             =   1.8741596407202E-04
(PID.TID 0000.0001) %MON dynstat_wvel_min             =  -2.1401503514276E-04
(PID.TID 0000.0001) %MON dynstat_wvel_mean            =  -8.1434564762134E-08
(PID.TID 0000.0001) %MON dynstat_wvel_sd              =   7.9222344330990E-06
(PID.TID 0000.0001) %MON dynstat_wvel_del2            =   7.4785860230428E-08
(PID.TID 0000.0001) %MON dynstat_theta_max            =   3.0924691623299E+01
(PID.TID 0000.0001) %MON dynstat_theta_min            =  -3.0042814184266E+00
(PID.TID 0000.0001) %MON dynstat_theta_mean           =   3.9091373027328E+00
(PID.TID 0000.0001) %MON dynstat_theta_sd             =   4.5714215151068E+00
(PID.TID 0000.0001) %MON dynstat_theta_del2           =   2.6438784670247E-03
(PID.TID 0000.0001) %MON dynstat_salt_max             =   4.1352951276764E+01
(PID.TID 0000.0001) %MON dynstat_salt_min             =   1.8518815358658E+01
(PID.TID 0000.0001) %MON dynstat_salt_mean            =   3.4771985242355E+01
(PID.TID 0000.0001) %MON dynstat_salt_sd              =   5.3170175366977E-01
(PID.TID 0000.0001) %MON dynstat_salt_del2            =   9.9795852969665E-04
(PID.TID 0000.0001) %MON dynstat_sst_max              =   3.0924691623299E+01
(PID.TID 0000.0001) %MON dynstat_sst_min              =  -1.9380911399250E+00
(PID.TID 0000.0001) %MON dynstat_sst_mean             =   1.8108135082972E+01
(PID.TID 0000.0001) %MON dynstat_sst_sd               =   9.8105328634547E+00
(PID.TID 0000.0001) %MON dynstat_sst_del2             =   1.5067816928229E-02
(PID.TID 0000.0001) %MON dynstat_sss_max              =   4.1352951276764E+01
(PID.TID 0000.0001) %MON dynstat_sss_min              =   1.8751521230420E+01
(PID.TID 0000.0001) %MON dynstat_sss_mean             =   3.4626730307906E+01
(PID.TID 0000.0001) %MON dynstat_sss_sd               =   1.4761241039110E+00
(PID.TID 0000.0001) %MON dynstat_sss_del2             =   1.0938473187640E-02
(PID.TID 0000.0001) %MON forcing_qnet_max             =   2.3587367603448E+03
(PID.TID 0000.0001) %MON forcing_qnet_min             =  -1.4736291205254E+03
(PID.TID 0000.0001) %MON forcing_qnet_mean            =   2.4592087525314E+01
(PID.TID 0000.0001) %MON forcing_qnet_sd              =   2.0694082263560E+02
(PID.TID 0000.0001) %MON forcing_qnet_del2            =   4.2411932722127E+00
(PID.TID 0000.0001) %MON forcing_qsw_max              =   0.0000000000000E+00
(PID.TID 0000.0001) %MON forcing_qsw_min              =  -1.0735932205969E+02
(PID.TID 0000.0001) %MON forcing_qsw_mean             =  -1.2971361372913E+01
(PID.TID 0000.0001) %MON forcing_qsw_sd               =   2.4504008078418E+01
(PID.TID 0000.0001) %MON forcing_qsw_del2             =   1.4380712655028E-01
(PID.TID 0000.0001) %MON forcing_empmr_max            =   7.1056350134313E-03
(PID.TID 0000.0001) %MON forcing_empmr_min            =  -1.0214367508888E-01
(PID.TID 0000.0001) %MON forcing_empmr_mean           =  -3.0214628895598E-04
(PID.TID 0000.0001) %MON forcing_empmr_sd             =   4.4987578976776E-03
(PID.TID 0000.0001) %MON forcing_empmr_del2           =   1.7830519735088E-04
(PID.TID 0000.0001) %MON forcing_fu_max               =   3.7172300665431E-01
(PID.TID 0000.0001) %MON forcing_fu_min               =  -3.6234083059566E-01
(PID.TID 0000.0001) %MON forcing_fu_mean              =  -3.6114541558490E-03
(PID.TID 0000.0001) %MON forcing_fu_sd                =   6.2263076238333E-02
(PID.TID 0000.0001) %MON forcing_fu_del2              =   6.1537224440556E-04
(PID.TID 0000.0001) %MON forcing_fv_max               =   3.2807032032434E-01
(PID.TID 0000.0001) %MON forcing_fv_min               =  -2.8966213611243E-01
(PID.TID 0000.0001) %MON forcing_fv_mean              =  -1.4058179026626E-02
(PID.TID 0000.0001) %MON forcing_fv_sd                =   6.4612270594422E-02
(PID.TID 0000.0001) %MON forcing_fv_del2              =   5.5011643706159E-04
(PID.TID 0000.0001) %MON trAdv_CFL_u_max              =   2.1746762633032E-03
(PID.TID 0000.0001) %MON trAdv_CFL_v_max              =   2.3066555335660E-03
(PID.TID 0000.0001) %MON trAdv_CFL_w_max              =   2.1171819963533E-03
(PID.TID 0000.0001) %MON advcfl_uvel_max              =   2.1054081213546E-03
(PID.TID 0000.0001) %MON advcfl_vvel_max              =   2.2856325303405E-03
(PID.TID 0000.0001) %MON advcfl_wvel_max              =   3.5528234813524E-03
(PID.TID 0000.0001) %MON advcfl_W_hf_max              =   2.4096983381126E-03
(PID.TID 0000.0001) %MON pe_b_mean                    =   5.0894828196704E-04
(PID.TID 0000.0001) %MON ke_max                       =   1.8248298381738E-01
(PID.TID 0000.0001) %MON ke_mean                      =   1.6288762797765E-04
(PID.TID 0000.0001) %MON ke_vol                       =   1.3398114213983E+18
(PID.TID 0000.0001) %MON vort_r_min                   =  -2.6137019468325E-06
(PID.TID 0000.0001) %MON vort_r_max                   =   3.6500568392523E-06
(PID.TID 0000.0001) %MON vort_a_mean                  =  -2.0549865324846E-05
(PID.TID 0000.0001) %MON vort_a_sd                    =   7.5259587139802E-05
(PID.TID 0000.0001) %MON vort_p_mean                  =  -2.4783307059995E-05
(PID.TID 0000.0001) %MON vort_p_sd                    =   1.2811912698170E-04
(PID.TID 0000.0001) %MON surfExpan_theta_mean         =  -6.1159615809232E-06
(PID.TID 0000.0001) %MON surfExpan_salt_mean          =   9.7506548860072E-07
(PID.TID 0000.0001) // =======================================================
(PID.TID 0000.0001) // End MONITOR dynamic field statistics
(PID.TID 0000.0001) // =======================================================
(PID.TID 0000.0001) // =======================================================
(PID.TID 0000.0001) // Begin MONITOR SEAICE statistics
(PID.TID 0000.0001) // =======================================================
(PID.TID 0000.0001) %MON seaice_tsnumber              =                 72044
(PID.TID 0000.0001) %MON seaice_time_sec              =   6.4839600000000E+07
(PID.TID 0000.0001) %MON seaice_uice_max              =   2.4494713985994E-01
(PID.TID 0000.0001) %MON seaice_uice_min              =  -7.2414183755234E-01
(PID.TID 0000.0001) %MON seaice_uice_mean             =  -7.0687547559683E-03
(PID.TID 0000.0001) %MON seaice_uice_sd               =   5.6600404770939E-02
(PID.TID 0000.0001) %MON seaice_uice_del2             =   8.8361352357132E-04
(PID.TID 0000.0001) %MON seaice_vice_max              =   7.3433657760607E-01
(PID.TID 0000.0001) %MON seaice_vice_min              =  -4.0004408142980E-01
(PID.TID 0000.0001) %MON seaice_vice_mean             =  -1.4910102646514E-02
(PID.TID 0000.0001) %MON seaice_vice_sd               =   6.0794526983768E-02
(PID.TID 0000.0001) %MON seaice_vice_del2             =   1.0434133045549E-03
(PID.TID 0000.0001) %MON seaice_area_max              =   1.0000000000000E+00
(PID.TID 0000.0001) %MON seaice_area_min              =   0.0000000000000E+00
(PID.TID 0000.0001) %MON seaice_area_mean             =   6.9162695907904E-02
(PID.TID 0000.0001) %MON seaice_area_sd               =   2.3761625342646E-01
(PID.TID 0000.0001) %MON seaice_area_del2             =   1.7573723482186E-03
(PID.TID 0000.0001) %MON seaice_heff_max              =   8.5256180646900E+00
(PID.TID 0000.0001) %MON seaice_heff_min              =   0.0000000000000E+00
(PID.TID 0000.0001) %MON seaice_heff_mean             =   2.0613351332580E-01
(PID.TID 0000.0001) %MON seaice_heff_sd               =   9.8000236844396E-01
(PID.TID 0000.0001) %MON seaice_heff_del2             =   6.2400616021461E-03
(PID.TID 0000.0001) %MON seaice_hsnow_max             =   2.0317996580650E+00
(PID.TID 0000.0001) %MON seaice_hsnow_min             =   0.0000000000000E+00
(PID.TID 0000.0001) %MON seaice_hsnow_mean            =   2.2749288811316E-02
(PID.TID 0000.0001) %MON seaice_hsnow_sd              =   1.1947696850903E-01
(PID.TID 0000.0001) %MON seaice_hsnow_del2            =   1.4629916199186E-03
(PID.TID 0000.0001) // =======================================================
(PID.TID 0000.0001) // End MONITOR SEAICE statistics
(PID.TID 0000.0001) // =======================================================
 Compute Stats, Diag. #    211  SIarea    vol(   0 ): 1.456E+15  Parms: SM      M1      
 Compute Stats, Diag. #    214  SIheff    vol(   0 ): 1.456E+15  Parms: SM      M1      
 Compute Stats, Diag. #    216  SIhsnow   vol(   0 ): 1.456E+15  Parms: SM      M1      
 Compute Stats, Diag. #     83  sIceLoad  vol(   0 ): 1.456E+15  Parms: SM      U1      
 Compute Stats, Diag. #    220  SIuice    vol(   0 ): 1.383E+15  Parms: UU      M1      
 Compute Stats, Diag. #    221  SIvice    vol(   0 ): 1.391E+15  Parms: VV      M1      
 Compute Stats, Diag. #    222  SItaux    vol(   0 ): 1.383E+15  Parms: UU      U1      
 Compute Stats, Diag. #    223  SItauy    vol(   0 ): 1.391E+15  Parms: VV      U1      
 SEAICE_LSR: Residual Initial ipass,Uice,Vice=    1  2.99645422E-03  3.03160503E-03
 SEAICE_LSR (ipass=   1) iters,dU,Resid=     6  5.79091062E-05  7.09223942E-05
 SEAICE_LSR (ipass=   1) iters,dV,Resid=     6  4.85696675E-05  1.97030184E-05
 SEAICE_LSR: Residual Initial ipass,Uice,Vice=    2  2.29788547E-03  2.14305449E-03
 SEAICE_LSR (ipass=   2) iters,dU,Resid=     4  7.16785030E-05  9.96881058E-05
 SEAICE_LSR (ipass=   2) iters,dV,Resid=     4  9.46833396E-05  3.53432683E-05
 cg2d: Sum(rhs),rhsMax =  -3.20106141431781E+01  6.77240988156419E+01
(PID.TID 0000.0001)      cg2d_init_res =   1.65105232106760E-01
(PID.TID 0000.0001)      cg2d_iters(min,last) =      -1      10
(PID.TID 0000.0001)      cg2d_last_res =   6.89430350806522E-08
(PID.TID 0000.0001) // =======================================================
(PID.TID 0000.0001) // Begin MONITOR dynamic field statistics
(PID.TID 0000.0001) // =======================================================
(PID.TID 0000.0001) %MON time_tsnumber                =                 72045
(PID.TID 0000.0001) %MON time_secondsf                =   6.4840500000000E+07
(PID.TID 0000.0001) %MON dynstat_eta_max              =   3.0172489130865E+00
(PID.TID 0000.0001) %MON dynstat_eta_min              =  -1.6065421427860E+00
(PID.TID 0000.0001) %MON dynstat_eta_mean             =   2.5190594347693E-02
(PID.TID 0000.0001) %MON dynstat_eta_sd               =   6.1753699526472E-01
(PID.TID 0000.0001) %MON dynstat_eta_del2             =   2.3896642327920E-03
(PID.TID 0000.0001) %MON dynstat_uvel_max             =   3.6191639354883E-01
(PID.TID 0000.0001) %MON dynstat_uvel_min             =  -6.3301033516665E-01
(PID.TID 0000.0001) %MON dynstat_uvel_mean            =  -5.1898429306293E-04
(PID.TID 0000.0001) %MON dynstat_uvel_sd              =   1.2841866930675E-02
(PID.TID 0000.0001) %MON dynstat_uvel_del2            =   8.7119349778649E-05
(PID.TID 0000.0001) %MON dynstat_vvel_max             =   6.8107264677973E-01
(PID.TID 0000.0001) %MON dynstat_vvel_min             =  -4.0295472452487E-01
(PID.TID 0000.0001) %MON dynstat_vvel_mean            =   1.9079539949865E-05
(PID.TID 0000.0001) %MON dynstat_vvel_sd              =   1.3649405899862E-02
(PID.TID 0000.0001) %MON dynstat_vvel_del2            =   9.7549414927418E-05
(PID.TID 0000.0001) %MON dynstat_wvel_max             =   1.8123112216945E-04
(PID.TID 0000.0001) %MON dynstat_wvel_min             =  -2.1455645579506E-04
(PID.TID 0000.0001) %MON dynstat_wvel_mean            =  -1.0493535036172E-07
(PID.TID 0000.0001) %MON dynstat_wvel_sd              =   7.8945839164975E-06
(PID.TID 0000.0001) %MON dynstat_wvel_del2            =   7.5015181354254E-08
(PID.TID 0000.0001) %MON dynstat_theta_max            =   3.0924776439463E+01
(PID.TID 0000.0001) %MON dynstat_theta_min            =  -3.0042237462434E+00
(PID.TID 0000.0001) %MON dynstat_theta_mean           =   3.9091375699878E+00
(PID.TID 0000.0001) %MON dynstat_theta_sd             =   4.5714225833380E+00
(PID.TID 0000.0001) %MON dynstat_theta_del2           =   2.6437489279531E-03
(PID.TID 0000.0001) %MON dynstat_salt_max             =   4.1352596557337E+01
(PID.TID 0000.0001) %MON dynstat_salt_min             =   1.8518825831306E+01
(PID.TID 0000.0001) %MON dynstat_salt_mean            =   3.4771982273007E+01
(PID.TID 0000.0001) %MON dynstat_salt_sd              =   5.3171929519165E-01
(PID.TID 0000.0001) %MON dynstat_salt_del2            =   1.0026091757167E-03
(PID.TID 0000.0001) %MON dynstat_sst_max              =   3.0924776439463E+01
(PID.TID 0000.0001) %MON dynstat_sst_min              =  -1.9379071199523E+00
(PID.TID 0000.0001) %MON dynstat_sst_mean             =   1.8108060009629E+01
(PID.TID 0000.0001) %MON dynstat_sst_sd               =   9.8106035331921E+00
(PID.TID 0000.0001) %MON dynstat_sst_del2             =   1.5065360596809E-02
(PID.TID 0000.0001) %MON dynstat_sss_max              =   4.1352596557337E+01
(PID.TID 0000.0001) %MON dynstat_sss_min              =   1.8751544551922E+01
(PID.TID 0000.0001) %MON dynstat_sss_mean             =   3.4626522061726E+01
(PID.TID 0000.0001) %MON dynstat_sss_sd               =   1.4765637519914E+00
(PID.TID 0000.0001) %MON dynstat_sss_del2             =   1.1005381161473E-02
(PID.TID 0000.0001) %MON forcing_qnet_max             =   2.3300799459673E+03
(PID.TID 0000.0001) %MON forcing_qnet_min             =  -1.4524595962117E+03
(PID.TID 0000.0001) %MON forcing_qnet_mean            =   2.4300799315526E+01
(PID.TID 0000.0001) %MON forcing_qnet_sd              =   2.0560918360270E+02
(PID.TID 0000.0001) %MON forcing_qnet_del2            =   4.3220048401942E+00
(PID.TID 0000.0001) %MON forcing_qsw_max              =   0.0000000000000E+00
(PID.TID 0000.0001) %MON forcing_qsw_min              =  -1.0909899045115E+02
(PID.TID 0000.0001) %MON forcing_qsw_mean             =  -1.2851220348818E+01
(PID.TID 0000.0001) %MON forcing_qsw_sd               =   2.4119344896463E+01
(PID.TID 0000.0001) %MON forcing_qsw_del2             =   1.4091525338499E-01
(PID.TID 0000.0001) %MON forcing_empmr_max            =   7.0324228145182E-03
(PID.TID 0000.0001) %MON forcing_empmr_min            =  -1.0109146684408E-01
(PID.TID 0000.0001) %MON forcing_empmr_mean           =  -2.9985626928744E-04
(PID.TID 0000.0001) %MON forcing_empmr_sd             =   4.4523392656221E-03
(PID.TID 0000.0001) %MON forcing_empmr_del2           =   1.7645158745119E-04
(PID.TID 0000.0001) %MON forcing_fu_max               =   3.7193786788374E-01
(PID.TID 0000.0001) %MON forcing_fu_min               =  -3.6285771295354E-01
(PID.TID 0000.0001) %MON forcing_fu_mean              =  -3.6254144005646E-03
(PID.TID 0000.0001) %MON forcing_fu_sd                =   6.2079943786418E-02
(PID.TID 0000.0001) %MON forcing_fu_del2              =   6.1464946858053E-04
(PID.TID 0000.0001) %MON forcing_fv_max               =   3.3490938674501E-01
(PID.TID 0000.0001) %MON forcing_fv_min               =  -2.9126269701046E-01
(PID.TID 0000.0001) %MON forcing_fv_mean              =  -1.4210340312524E-02
(PID.TID 0000.0001) %MON forcing_fv_sd                =   6.4476525473444E-02
(PID.TID 0000.0001) %MON forcing_fv_del2              =   5.4977680252839E-04
(PID.TID 0000.0001) %MON trAdv_CFL_u_max              =   1.9161748539302E-03
(PID.TID 0000.0001) %MON trAdv_CFL_v_max              =   2.0656211697291E-03
(PID.TID 0000.0001) %MON trAdv_CFL_w_max              =   2.1007486509076E-03
(PID.TID 0000.0001) %MON advcfl_uvel_max              =   1.8630994702093E-03
(PID.TID 0000.0001) %MON advcfl_vvel_max              =   2.0410176737359E-03
(PID.TID 0000.0001) %MON advcfl_wvel_max              =   3.5162249337072E-03
(PID.TID 0000.0001) %MON advcfl_W_hf_max              =   2.3301647514325E-03
(PID.TID 0000.0001) %MON pe_b_mean                    =   5.0887317083741E-04
(PID.TID 0000.0001) %MON ke_max                       =   1.4161837747284E-01
(PID.TID 0000.0001) %MON ke_mean                      =   1.6232104965795E-04
(PID.TID 0000.0001) %MON ke_vol                       =   1.3398115170045E+18
(PID.TID 0000.0001) %MON vort_r_min                   =  -2.6891368236650E-06
(PID.TID 0000.0001) %MON vort_r_max                   =   3.3558361262712E-06
(PID.TID 0000.0001) %MON vort_a_mean                  =  -2.0549865324846E-05
(PID.TID 0000.0001) %MON vort_a_sd                    =   7.5259599121972E-05
(PID.TID 0000.0001) %MON vort_p_mean                  =  -2.4783305444753E-05
(PID.TID 0000.0001) %MON vort_p_sd                    =   1.2811911377898E-04
(PID.TID 0000.0001) %MON surfExpan_theta_mean         =  -6.1402817637635E-06
(PID.TID 0000.0001) %MON surfExpan_salt_mean          =   1.0022030108289E-06
(PID.TID 0000.0001) // =======================================================
(PID.TID 0000.0001) // End MONITOR dynamic field statistics
(PID.TID 0000.0001) // =======================================================
(PID.TID 0000.0001) // =======================================================
(PID.TID 0000.0001) // Begin MONITOR SEAICE statistics
(PID.TID 0000.0001) // =======================================================
(PID.TID 0000.0001) %MON seaice_tsnumber              =                 72045
(PID.TID 0000.0001) %MON seaice_time_sec              =   6.4840500000000E+07
(PID.TID 0000.0001) %MON seaice_uice_max              =   2.4333997164692E-01
(PID.TID 0000.0001) %MON seaice_uice_min              =  -6.6968004428817E-01
(PID.TID 0000.0001) %MON seaice_uice_mean             =  -7.0074196063429E-03
(PID.TID 0000.0001) %MON seaice_uice_sd               =   5.6153164132727E-02
(PID.TID 0000.0001) %MON seaice_uice_del2             =   8.8327637723283E-04
(PID.TID 0000.0001) %MON seaice_vice_max              =   6.5608671848884E-01
(PID.TID 0000.0001) %MON seaice_vice_min              =  -4.0064967615379E-01
(PID.TID 0000.0001) %MON seaice_vice_mean             =  -1.4922436532540E-02
(PID.TID 0000.0001) %MON seaice_vice_sd               =   6.0672215616160E-02
(PID.TID 0000.0001) %MON seaice_vice_del2             =   9.9178377930200E-04
(PID.TID 0000.0001) %MON seaice_area_max              =   1.0000000000000E+00
(PID.TID 0000.0001) %MON seaice_area_min              =   0.0000000000000E+00
(PID.TID 0000.0001) %MON seaice_area_mean             =   6.9157172227974E-02
(PID.TID 0000.0001) %MON seaice_area_sd               =   2.3759984169440E-01
(PID.TID 0000.0001) %MON seaice_area_del2             =   1.7563142514285E-03
(PID.TID 0000.0001) %MON seaice_heff_max              =   8.5266765438333E+00
(PID.TID 0000.0001) %MON seaice_heff_min              =   0.0000000000000E+00
(PID.TID 0000.0001) %MON seaice_heff_mean             =   2.0613152560925E-01
(PID.TID 0000.0001) %MON seaice_heff_sd               =   9.8002619769434E-01
(PID.TID 0000.0001) %MON seaice_heff_del2             =   6.2400696799468E-03
(PID.TID 0000.0001) %MON seaice_hsnow_max             =   2.0318032794911E+00
(PID.TID 0000.0001) %MON seaice_hsnow_min             =   0.0000000000000E+00
(PID.TID 0000.0001) %MON seaice_hsnow_mean            =   2.2748637068687E-02
(PID.TID 0000.0001) %MON seaice_hsnow_sd              =   1.1947361062557E-01
(PID.TID 0000.0001) %MON seaice_hsnow_del2            =   1.4629010255251E-03
(PID.TID 0000.0001) // =======================================================
(PID.TID 0000.0001) // End MONITOR SEAICE statistics
(PID.TID 0000.0001) // =======================================================
 Computing Diagnostic #    211  SIarea       Counter:       1   Parms: SM      M1      
 Computing Diagnostic #    214  SIheff       Counter:       1   Parms: SM      M1      
 Computing Diagnostic #    216  SIhsnow      Counter:       1   Parms: SM      M1      
 Computing Diagnostic #     83  sIceLoad     Counter:       1   Parms: SM      U1      
 Computing Diagnostic #    220  SIuice       Counter:       1   Parms: UU      M1      
           Vector  Mate for  SIuice       Diagnostic #    221  SIvice   exists 
 Computing Diagnostic #    221  SIvice       Counter:       1   Parms: VV      M1      
           Vector  Mate for  SIvice       Diagnostic #    220  SIuice   exists 
 Computing Diagnostic #    222  SItaux       Counter:       1   Parms: UU      U1      
           Vector  Mate for  SItaux       Diagnostic #    223  SItauy   exists 
 Computing Diagnostic #    223  SItauy       Counter:       1   Parms: VV      U1      
           Vector  Mate for  SItauy       Diagnostic #    222  SItaux   exists 
 Computing Diagnostic #      1  SDIAG1       Counter:       1   Parms: SM      L1      
 Computing Diagnostic #    282  SIareaN      Counter:       1   Parms: SM      MX      
 Computing Diagnostic #    281  SIheffN      Counter:       1   Parms: SM      MX      
 Computing Diagnostic #    283  SIhsnowN     Counter:       1   Parms: SM      MX      
 SEAICE_LSR: Residual Initial ipass,Uice,Vice=    1  3.11511572E-03  3.13301579E-03
 SEAICE_LSR (ipass=   1) iters,dU,Resid=     6  7.74966339E-05  8.72891137E-05
 SEAICE_LSR (ipass=   1) iters,dV,Resid=     6  4.85817281E-05  2.00694658E-05
 SEAICE_LSR: Residual Initial ipass,Uice,Vice=    2  2.43404266E-03  2.26466738E-03
 SEAICE_LSR (ipass=   2) iters,dU,Resid=     6  4.85164373E-05  5.77481298E-05
 SEAICE_LSR (ipass=   2) iters,dV,Resid=     6  2.02455790E-05  1.15949231E-05
 cg2d: Sum(rhs),rhsMax =  -3.20174846152508E+01  6.84041157404952E+01
(PID.TID 0000.0001)      cg2d_init_res =   1.53873577351603E-01
(PID.TID 0000.0001)      cg2d_iters(min,last) =      -1      10
(PID.TID 0000.0001)      cg2d_last_res =   7.35827030451104E-08
(PID.TID 0000.0001) // =======================================================
(PID.TID 0000.0001) // Begin MONITOR dynamic field statistics
(PID.TID 0000.0001) // =======================================================
(PID.TID 0000.0001) %MON time_tsnumber                =                 72046
(PID.TID 0000.0001) %MON time_secondsf                =   6.4841400000000E+07
(PID.TID 0000.0001) %MON dynstat_eta_max              =   3.0472418841865E+00
(PID.TID 0000.0001) %MON dynstat_eta_min              =  -1.6053902493281E+00
(PID.TID 0000.0001) %MON dynstat_eta_mean             =   2.5448993798507E-02
(PID.TID 0000.0001) %MON dynstat_eta_sd               =   6.1744270333798E-01
(PID.TID 0000.0001) %MON dynstat_eta_del2             =   2.4375855966609E-03
(PID.TID 0000.0001) %MON dynstat_uvel_max             =   3.5774220396232E-01
(PID.TID 0000.0001) %MON dynstat_uvel_min             =  -5.6554666300231E-01
(PID.TID 0000.0001) %MON dynstat_uvel_mean            =  -5.2575468185590E-04
(PID.TID 0000.0001) %MON dynstat_uvel_sd              =   1.2799539132590E-02
(PID.TID 0000.0001) %MON dynstat_uvel_del2            =   8.7580363963405E-05
(PID.TID 0000.0001) %MON dynstat_vvel_max             =   5.9637124008188E-01
(PID.TID 0000.0001) %MON dynstat_vvel_min             =  -3.9804920600153E-01
(PID.TID 0000.0001) %MON dynstat_vvel_mean            =   6.9744296596059E-05
(PID.TID 0000.0001) %MON dynstat_vvel_sd              =   1.3653589201436E-02
(PID.TID 0000.0001) %MON dynstat_vvel_del2            =   9.3933300319291E-05
(PID.TID 0000.0001) %MON dynstat_wvel_max             =   1.7517726245514E-04
(PID.TID 0000.0001) %MON dynstat_wvel_min             =  -2.1355222711249E-04
(PID.TID 0000.0001) %MON dynstat_wvel_mean            =  -1.2996800017776E-07
(PID.TID 0000.0001) %MON dynstat_wvel_sd              =   7.8767156950366E-06
(PID.TID 0000.0001) %MON dynstat_wvel_del2            =   7.5299485776083E-08
(PID.TID 0000.0001) %MON dynstat_theta_max            =   3.0924850658962E+01
(PID.TID 0000.0001) %MON dynstat_theta_min            =  -3.0041984648689E+00
(PID.TID 0000.0001) %MON dynstat_theta_mean           =   3.9091378476453E+00
(PID.TID 0000.0001) %MON dynstat_theta_sd             =   4.5714236249610E+00
(PID.TID 0000.0001) %MON dynstat_theta_del2           =   2.6436084463102E-03
(PID.TID 0000.0001) %MON dynstat_salt_max             =   4.1352241394776E+01
(PID.TID 0000.0001) %MON dynstat_salt_min             =   1.8518836282959E+01
(PID.TID 0000.0001) %MON dynstat_salt_mean            =   3.4771979357694E+01
(PID.TID 0000.0001) %MON dynstat_salt_sd              =   5.3173663960027E-01
(PID.TID 0000.0001) %MON dynstat_salt_del2            =   1.0071902902734E-03
(PID.TID 0000.0001) %MON dynstat_sst_max              =   3.0924850658962E+01
(PID.TID 0000.0001) %MON dynstat_sst_min              =  -1.9377253613453E+00
(PID.TID 0000.0001) %MON dynstat_sst_mean             =   1.8107985128552E+01
(PID.TID 0000.0001) %MON dynstat_sst_sd               =   9.8106734259918E+00
(PID.TID 0000.0001) %MON dynstat_sst_del2             =   1.5062704548505E-02
(PID.TID 0000.0001) %MON dynstat_sss_max              =   4.1352241394776E+01
(PID.TID 0000.0001) %MON dynstat_sss_min              =   1.8751570995231E+01
(PID.TID 0000.0001) %MON dynstat_sss_mean             =   3.4626317554574E+01
(PID.TID 0000.0001) %MON dynstat_sss_sd               =   1.4769988842756E+00
(PID.TID 0000.0001) %MON dynstat_sss_del2             =   1.1071196285827E-02
(PID.TID 0000.0001) %MON forcing_qnet_max             =   2.6323078363029E+03
(PID.TID 0000.0001) %MON forcing_qnet_min             =  -1.9892918701172E+03
(PID.TID 0000.0001) %MON forcing_qnet_mean            =   2.4005383464369E+01
(PID.TID 0000.0001) %MON forcing_qnet_sd              =   2.0943470288518E+02
(PID.TID 0000.0001) %MON forcing_qnet_del2            =   4.7437810863632E+00
(PID.TID 0000.0001) %MON forcing_qsw_max              =   0.0000000000000E+00
(PID.TID 0000.0001) %MON forcing_qsw_min              =  -1.0960225291860E+02
(PID.TID 0000.0001) %MON forcing_qsw_mean             =  -1.2882700787464E+01
(PID.TID 0000.0001) %MON forcing_qsw_sd               =   2.3972347942323E+01
(PID.TID 0000.0001) %MON forcing_qsw_del2             =   1.4015133784643E-01
(PID.TID 0000.0001) %MON forcing_empmr_max            =   6.9598988629878E-03
(PID.TID 0000.0001) %MON forcing_empmr_min            =  -1.0005015134811E-01
(PID.TID 0000.0001) %MON forcing_empmr_mean           =  -2.9715936843677E-04
(PID.TID 0000.0001) %MON forcing_empmr_sd             =   4.4063744845005E-03
(PID.TID 0000.0001) %MON forcing_empmr_del2           =   1.7459962245003E-04
(PID.TID 0000.0001) %MON forcing_fu_max               =   3.7370094266169E-01
(PID.TID 0000.0001) %MON forcing_fu_min               =  -3.6398838065648E-01
(PID.TID 0000.0001) %MON forcing_fu_mean              =  -3.6039417453402E-03
(PID.TID 0000.0001) %MON forcing_fu_sd                =   6.1963636305766E-02
(PID.TID 0000.0001) %MON forcing_fu_del2              =   6.1441348264006E-04
(PID.TID 0000.0001) %MON forcing_fv_max               =   3.3651784565496E-01
(PID.TID 0000.0001) %MON forcing_fv_min               =  -2.9250664619166E-01
(PID.TID 0000.0001) %MON forcing_fv_mean              =  -1.4347596844615E-02
(PID.TID 0000.0001) %MON forcing_fv_sd                =   6.4326908668488E-02
(PID.TID 0000.0001) %MON forcing_fv_del2              =   5.4878429149181E-04
(PID.TID 0000.0001) %MON trAdv_CFL_u_max              =   1.7148313260449E-03
(PID.TID 0000.0001) %MON trAdv_CFL_v_max              =   1.8718074855897E-03
(PID.TID 0000.0001) %MON trAdv_CFL_w_max              =   2.0649927215322E-03
(PID.TID 0000.0001) %MON advcfl_uvel_max              =   1.6645378909032E-03
(PID.TID 0000.0001) %MON advcfl_vvel_max              =   1.7871870891749E-03
(PID.TID 0000.0001) %MON advcfl_wvel_max              =   3.4800052642822E-03
(PID.TID 0000.0001) %MON advcfl_W_hf_max              =   2.2523175254841E-03
(PID.TID 0000.0001) %MON pe_b_mean                    =   5.0873543662795E-04
(PID.TID 0000.0001) %MON ke_max                       =   1.2586240498193E-01
(PID.TID 0000.0001) %MON ke_mean                      =   1.6188078300142E-04
(PID.TID 0000.0001) %MON ke_vol                       =   1.3398116118860E+18
(PID.TID 0000.0001) %MON vort_r_min                   =  -2.7563214461581E-06
(PID.TID 0000.0001) %MON vort_r_max                   =   2.9958366283819E-06
(PID.TID 0000.0001) %MON vort_a_mean                  =  -2.0549865324846E-05
(PID.TID 0000.0001) %MON vort_a_sd                    =   7.5259611136222E-05
(PID.TID 0000.0001) %MON vort_p_mean                  =  -2.4783303797488E-05
(PID.TID 0000.0001) %MON vort_p_sd                    =   1.2811909795850E-04
(PID.TID 0000.0001) %MON surfExpan_theta_mean         =  -6.1847635337427E-06
(PID.TID 0000.0001) %MON surfExpan_salt_mean          =   1.0324148360680E-06
(PID.TID 0000.0001) // =======================================================
(PID.TID 0000.0001) // End MONITOR dynamic field statistics
(PID.TID 0000.0001) // =======================================================
(PID.TID 0000.0001) // =======================================================
(PID.TID 0000.0001) // Begin MONITOR SEAICE statistics
(PID.TID 0000.0001) // =======================================================
(PID.TID 0000.0001) %MON seaice_tsnumber              =                 72046
(PID.TID 0000.0001) %MON seaice_time_sec              =   6.4841400000000E+07
(PID.TID 0000.0001) %MON seaice_uice_max              =   2.4165186404955E-01
(PID.TID 0000.0001) %MON seaice_uice_min              =  -6.0967982352992E-01
(PID.TID 0000.0001) %MON seaice_uice_mean             =  -6.9482208009973E-03
(PID.TID 0000.0001) %MON seaice_uice_sd               =   5.5750067137507E-02
(PID.TID 0000.0001) %MON seaice_uice_del2             =   8.8352911996820E-04
(PID.TID 0000.0001) %MON seaice_vice_max              =   5.7332974429585E-01
(PID.TID 0000.0001) %MON seaice_vice_min              =  -3.9803151029636E-01
(PID.TID 0000.0001) %MON seaice_vice_mean             =  -1.4918863462331E-02
(PID.TID 0000.0001) %MON seaice_vice_sd               =   6.0669329480033E-02
(PID.TID 0000.0001) %MON seaice_vice_del2             =   9.4430483455644E-04
(PID.TID 0000.0001) %MON seaice_area_max              =   1.0000000000000E+00
(PID.TID 0000.0001) %MON seaice_area_min              =   0.0000000000000E+00
(PID.TID 0000.0001) %MON seaice_area_mean             =   6.9151569277624E-02
(PID.TID 0000.0001) %MON seaice_area_sd               =   2.3758340126159E-01
(PID.TID 0000.0001) %MON seaice_area_del2             =   1.7552816998820E-03
(PID.TID 0000.0001) %MON seaice_heff_max              =   8.5277047470781E+00
(PID.TID 0000.0001) %MON seaice_heff_min              =   0.0000000000000E+00
(PID.TID 0000.0001) %MON seaice_heff_mean             =   2.0612919183526E-01
(PID.TID 0000.0001) %MON seaice_heff_sd               =   9.8004843930882E-01
(PID.TID 0000.0001) %MON seaice_heff_del2             =   6.2400700168622E-03
(PID.TID 0000.0001) %MON seaice_hsnow_max             =   2.0318106721171E+00
(PID.TID 0000.0001) %MON seaice_hsnow_min             =   0.0000000000000E+00
(PID.TID 0000.0001) %MON seaice_hsnow_mean            =   2.2747988529902E-02
(PID.TID 0000.0001) %MON seaice_hsnow_sd              =   1.1947026062183E-01
(PID.TID 0000.0001) %MON seaice_hsnow_del2            =   1.4628110191389E-03
(PID.TID 0000.0001) // =======================================================
(PID.TID 0000.0001) // End MONITOR SEAICE statistics
(PID.TID 0000.0001) // =======================================================
 SEAICE_LSR: Residual Initial ipass,Uice,Vice=    1  3.20114041E-03  3.20407954E-03
 SEAICE_LSR (ipass=   1) iters,dU,Resid=     6  7.31235960E-05  8.19358973E-05
 SEAICE_LSR (ipass=   1) iters,dV,Resid=     6  2.95748149E-05  2.04575137E-05
 SEAICE_LSR: Residual Initial ipass,Uice,Vice=    2  2.45648270E-03  2.38569568E-03
 SEAICE_LSR (ipass=   2) iters,dU,Resid=     4  9.12575534E-05  1.06428917E-04
 SEAICE_LSR (ipass=   2) iters,dV,Resid=     4  8.66428158E-05  3.77962727E-05
 cg2d: Sum(rhs),rhsMax =  -3.21871237154270E+01  6.87263831042135E+01
(PID.TID 0000.0001)      cg2d_init_res =   1.44940686904360E-01
(PID.TID 0000.0001)      cg2d_iters(min,last) =      -1      10
(PID.TID 0000.0001)      cg2d_last_res =   7.54769468984706E-08
(PID.TID 0000.0001) // =======================================================
(PID.TID 0000.0001) // Begin MONITOR dynamic field statistics
(PID.TID 0000.0001) // =======================================================
(PID.TID 0000.0001) %MON time_tsnumber                =                 72047
(PID.TID 0000.0001) %MON time_secondsf                =   6.4842300000000E+07
(PID.TID 0000.0001) %MON dynstat_eta_max              =   3.0669003860061E+00
(PID.TID 0000.0001) %MON dynstat_eta_min              =  -1.6039812246807E+00
(PID.TID 0000.0001) %MON dynstat_eta_mean             =   2.5704362139378E-02
(PID.TID 0000.0001) %MON dynstat_eta_sd               =   6.1729524269487E-01
(PID.TID 0000.0001) %MON dynstat_eta_del2             =   2.4688604786597E-03
(PID.TID 0000.0001) %MON dynstat_uvel_max             =   3.5182253654846E-01
(PID.TID 0000.0001) %MON dynstat_uvel_min             =  -5.6569261219526E-01
(PID.TID 0000.0001) %MON dynstat_uvel_mean            =  -5.2924938801600E-04
(PID.TID 0000.0001) %MON dynstat_uvel_sd              =   1.2760768253369E-02
(PID.TID 0000.0001) %MON dynstat_uvel_del2            =   8.8202456118983E-05
(PID.TID 0000.0001) %MON dynstat_vvel_max             =   5.1000931144254E-01
(PID.TID 0000.0001) %MON dynstat_vvel_min             =  -4.0007472816688E-01
(PID.TID 0000.0001) %MON dynstat_vvel_mean            =   1.1962075350274E-04
(PID.TID 0000.0001) %MON dynstat_vvel_sd              =   1.3666027057182E-02
(PID.TID 0000.0001) %MON dynstat_vvel_del2            =   9.0833044386526E-05
(PID.TID 0000.0001) %MON dynstat_wvel_max             =   1.6953991919939E-04
(PID.TID 0000.0001) %MON dynstat_wvel_min             =  -2.1090807287332E-04
(PID.TID 0000.0001) %MON dynstat_wvel_mean            =  -1.5564191011988E-07
(PID.TID 0000.0001) %MON dynstat_wvel_sd              =   7.8701271350684E-06
(PID.TID 0000.0001) %MON dynstat_wvel_del2            =   7.5644821907269E-08
(PID.TID 0000.0001) %MON dynstat_theta_max            =   3.0924913902589E+01
(PID.TID 0000.0001) %MON dynstat_theta_min            =  -3.0042087774120E+00
(PID.TID 0000.0001) %MON dynstat_theta_mean           =   3.9091383577315E+00
(PID.TID 0000.0001) %MON dynstat_theta_sd             =   4.5714252636590E+00
(PID.TID 0000.0001) %MON dynstat_theta_del2           =   2.6434505307070E-03
(PID.TID 0000.0001) %MON dynstat_salt_max             =   4.1351887650996E+01
(PID.TID 0000.0001) %MON dynstat_salt_min             =   1.8518846712563E+01
(PID.TID 0000.0001) %MON dynstat_salt_mean            =   3.4771976575639E+01
(PID.TID 0000.0001) %MON dynstat_salt_sd              =   5.3175379066497E-01
(PID.TID 0000.0001) %MON dynstat_salt_del2            =   1.0117051751751E-03
(PID.TID 0000.0001) %MON dynstat_sst_max              =   3.0924913902589E+01
(PID.TID 0000.0001) %MON dynstat_sst_min              =  -1.9375415237933E+00
(PID.TID 0000.0001) %MON dynstat_sst_mean             =   1.8107929912122E+01
(PID.TID 0000.0001) %MON dynstat_sst_sd               =   9.8107398462435E+00
(PID.TID 0000.0001) %MON dynstat_sst_del2             =   1.5059555212433E-02
(PID.TID 0000.0001) %MON dynstat_sss_max              =   4.1351887650996E+01
(PID.TID 0000.0001) %MON dynstat_sss_min              =   1.8751600659834E+01
(PID.TID 0000.0001) %MON dynstat_sss_mean             =   3.4626123418154E+01
(PID.TID 0000.0001) %MON dynstat_sss_sd               =   1.4774298617913E+00
(PID.TID 0000.0001) %MON dynstat_sss_del2             =   1.1135978132665E-02
(PID.TID 0000.0001) %MON forcing_qnet_max             =   4.0157975745874E+03
(PID.TID 0000.0001) %MON forcing_qnet_min             =  -1.8735919921875E+04
(PID.TID 0000.0001) %MON forcing_qnet_mean            =   1.9845015929028E+01
(PID.TID 0000.0001) %MON forcing_qnet_sd              =   3.6036800653635E+02
(PID.TID 0000.0001) %MON forcing_qnet_del2            =   1.2336668534582E+01
(PID.TID 0000.0001) %MON forcing_qsw_max              =   0.0000000000000E+00
(PID.TID 0000.0001) %MON forcing_qsw_min              =  -1.0965127180972E+02
(PID.TID 0000.0001) %MON forcing_qsw_mean             =  -1.2892728860292E+01
(PID.TID 0000.0001) %MON forcing_qsw_sd               =   2.3783423225376E+01
(PID.TID 0000.0001) %MON forcing_qsw_del2             =   1.3933742166640E-01
(PID.TID 0000.0001) %MON forcing_empmr_max            =   6.8881628103554E-03
(PID.TID 0000.0001) %MON forcing_empmr_min            =  -9.9018916487694E-02
(PID.TID 0000.0001) %MON forcing_empmr_mean           =  -2.9367359200162E-04
(PID.TID 0000.0001) %MON forcing_empmr_sd             =   4.3615543109804E-03
(PID.TID 0000.0001) %MON forcing_empmr_del2           =   1.7278634147016E-04
(PID.TID 0000.0001) %MON forcing_fu_max               =   3.7852255274060E-01
(PID.TID 0000.0001) %MON forcing_fu_min               =  -3.6442974215532E-01
(PID.TID 0000.0001) %MON forcing_fu_mean              =  -3.5318531937901E-03
(PID.TID 0000.0001) %MON forcing_fu_sd                =   6.2042415213155E-02
(PID.TID 0000.0001) %MON forcing_fu_del2              =   6.1573804541427E-04
(PID.TID 0000.0001) %MON forcing_fv_max               =   3.3441739719330E-01
(PID.TID 0000.0001) %MON forcing_fv_min               =  -2.9330149381390E-01
(PID.TID 0000.0001) %MON forcing_fv_mean              =  -1.4474151940180E-02
(PID.TID 0000.0001) %MON forcing_fv_sd                =   6.4131943816689E-02
(PID.TID 0000.0001) %MON forcing_fv_del2              =   5.4753436714681E-04
(PID.TID 0000.0001) %MON trAdv_CFL_u_max              =   1.6059184335440E-03
(PID.TID 0000.0001) %MON trAdv_CFL_v_max              =   1.7707354924666E-03
(PID.TID 0000.0001) %MON trAdv_CFL_w_max              =   2.0095921093892E-03
(PID.TID 0000.0001) %MON advcfl_uvel_max              =   1.6092246922985E-03
(PID.TID 0000.0001) %MON advcfl_vvel_max              =   1.5283803032553E-03
(PID.TID 0000.0001) %MON advcfl_wvel_max              =   3.4441362256589E-03
(PID.TID 0000.0001) %MON advcfl_W_hf_max              =   2.1783898082036E-03
(PID.TID 0000.0001) %MON pe_b_mean                    =   5.0851024685939E-04
(PID.TID 0000.0001) %MON ke_max                       =   1.3725180855417E-01
(PID.TID 0000.0001) %MON ke_mean                      =   1.6158926847190E-04
(PID.TID 0000.0001) %MON ke_vol                       =   1.3398117059141E+18
(PID.TID 0000.0001) %MON vort_r_min                   =  -2.8799591126897E-06
(PID.TID 0000.0001) %MON vort_r_max                   =   2.5798441893170E-06
(PID.TID 0000.0001) %MON vort_a_mean                  =  -2.0549865324846E-05
(PID.TID 0000.0001) %MON vort_a_sd                    =   7.5259623042699E-05
(PID.TID 0000.0001) %MON vort_p_mean                  =  -2.4783302112681E-05
(PID.TID 0000.0001) %MON vort_p_sd                    =   1.2811908046551E-04
(PID.TID 0000.0001) %MON surfExpan_theta_mean         =  -6.2359873017071E-06
(PID.TID 0000.0001) %MON surfExpan_salt_mean          =   1.0641232664787E-06
(PID.TID 0000.0001) // =======================================================
(PID.TID 0000.0001) // End MONITOR dynamic field statistics
(PID.TID 0000.0001) // =======================================================
(PID.TID 0000.0001) // =======================================================
(PID.TID 0000.0001) // Begin MONITOR SEAICE statistics
(PID.TID 0000.0001) // =======================================================
(PID.TID 0000.0001) %MON seaice_tsnumber              =                 72047
(PID.TID 0000.0001) %MON seaice_time_sec              =   6.4842300000000E+07
(PID.TID 0000.0001) %MON seaice_uice_max              =   2.4025843967024E-01
(PID.TID 0000.0001) %MON seaice_uice_min              =  -5.4492750330460E-01
(PID.TID 0000.0001) %MON seaice_uice_mean             =  -6.8582161933143E-03
(PID.TID 0000.0001) %MON seaice_uice_sd               =   5.5369152125215E-02
(PID.TID 0000.0001) %MON seaice_uice_del2             =   8.8496614105834E-04
(PID.TID 0000.0001) %MON seaice_vice_max              =   4.8755147170171E-01
(PID.TID 0000.0001) %MON seaice_vice_min              =  -3.9213162706559E-01
(PID.TID 0000.0001) %MON seaice_vice_mean             =  -1.4923167232372E-02
(PID.TID 0000.0001) %MON seaice_vice_sd               =   6.0767138004305E-02
(PID.TID 0000.0001) %MON seaice_vice_del2             =   9.0342780726906E-04
(PID.TID 0000.0001) %MON seaice_area_max              =   1.0000000000000E+00
(PID.TID 0000.0001) %MON seaice_area_min              =   0.0000000000000E+00
(PID.TID 0000.0001) %MON seaice_area_mean             =   6.9145895694685E-02
(PID.TID 0000.0001) %MON seaice_area_sd               =   2.3756696988184E-01
(PID.TID 0000.0001) %MON seaice_area_del2             =   1.7542809604686E-03
(PID.TID 0000.0001) %MON seaice_heff_max              =   8.5287039844764E+00
(PID.TID 0000.0001) %MON seaice_heff_min              =   0.0000000000000E+00
(PID.TID 0000.0001) %MON seaice_heff_mean             =   2.0612652442769E-01
(PID.TID 0000.0001) %MON seaice_heff_sd               =   9.8006917294032E-01
(PID.TID 0000.0001) %MON seaice_heff_del2             =   6.2400645228796E-03
(PID.TID 0000.0001) %MON seaice_hsnow_max             =   2.0318116901562E+00
(PID.TID 0000.0001) %MON seaice_hsnow_min             =   0.0000000000000E+00
(PID.TID 0000.0001) %MON seaice_hsnow_mean            =   2.2747340556933E-02
(PID.TID 0000.0001) %MON seaice_hsnow_sd              =   1.1946688830992E-01
(PID.TID 0000.0001) %MON seaice_hsnow_del2            =   1.4627212232143E-03
(PID.TID 0000.0001) // =======================================================
(PID.TID 0000.0001) // End MONITOR SEAICE statistics
(PID.TID 0000.0001) // =======================================================
 SEAICE_LSR: Residual Initial ipass,Uice,Vice=    1  3.23085148E-03  3.27579156E-03
 SEAICE_LSR (ipass=   1) iters,dU,Resid=     6  6.57816271E-05  7.50454736E-05
 SEAICE_LSR (ipass=   1) iters,dV,Resid=     6  1.58948054E-05  2.12034490E-05
 SEAICE_LSR: Residual Initial ipass,Uice,Vice=    2  2.37284580E-03  2.51308106E-03
 SEAICE_LSR (ipass=   2) iters,dU,Resid=     4  9.07861907E-05  9.55435650E-05
 SEAICE_LSR (ipass=   2) iters,dV,Resid=     4  6.81563317E-05  3.96566893E-05
 cg2d: Sum(rhs),rhsMax =  -3.25253225176689E+01  6.86824606373288E+01
(PID.TID 0000.0001)      cg2d_init_res =   1.38754584287778E-01
(PID.TID 0000.0001)      cg2d_iters(min,last) =      -1      10
(PID.TID 0000.0001)      cg2d_last_res =   7.62492856762508E-08
(PID.TID 0000.0001) // =======================================================
(PID.TID 0000.0001) // Begin MONITOR dynamic field statistics
(PID.TID 0000.0001) // =======================================================
(PID.TID 0000.0001) %MON time_tsnumber                =                 72048
(PID.TID 0000.0001) %MON time_secondsf                =   6.4843200000000E+07
(PID.TID 0000.0001) %MON dynstat_eta_max              =   3.1035634150928E+00
(PID.TID 0000.0001) %MON dynstat_eta_min              =  -1.6023594260446E+00
(PID.TID 0000.0001) %MON dynstat_eta_mean             =   2.5957844760510E-02
(PID.TID 0000.0001) %MON dynstat_eta_sd               =   6.1708570336399E-01
(PID.TID 0000.0001) %MON dynstat_eta_del2             =   2.4811153523050E-03
(PID.TID 0000.0001) %MON dynstat_uvel_max             =   3.4419263480252E-01
(PID.TID 0000.0001) %MON dynstat_uvel_min             =  -5.6727363629823E-01
(PID.TID 0000.0001) %MON dynstat_uvel_mean            =  -5.2954070676340E-04
(PID.TID 0000.0001) %MON dynstat_uvel_sd              =   1.2727831364837E-02
(PID.TID 0000.0001) %MON dynstat_uvel_del2            =   8.8975411100086E-05
(PID.TID 0000.0001) %MON dynstat_vvel_max             =   4.2334409353283E-01
(PID.TID 0000.0001) %MON dynstat_vvel_min             =  -4.3180970605641E-01
(PID.TID 0000.0001) %MON dynstat_vvel_mean            =   1.6810666607678E-04
(PID.TID 0000.0001) %MON dynstat_vvel_sd              =   1.3685590319817E-02
(PID.TID 0000.0001) %MON dynstat_vvel_del2            =   8.8409800393668E-05
(PID.TID 0000.0001) %MON dynstat_wvel_max             =   1.6410079418420E-04
(PID.TID 0000.0001) %MON dynstat_wvel_min             =  -2.0655976722136E-04
(PID.TID 0000.0001) %MON dynstat_wvel_mean            =  -1.8207997642127E-07
(PID.TID 0000.0001) %MON dynstat_wvel_sd              =   7.8753339437979E-06
(PID.TID 0000.0001) %MON dynstat_wvel_del2            =   7.6042045302109E-08
(PID.TID 0000.0001) %MON dynstat_theta_max            =   3.0924964676749E+01
(PID.TID 0000.0001) %MON dynstat_theta_min            =  -3.0042565221280E+00
(PID.TID 0000.0001) %MON dynstat_theta_mean           =   3.9091385459314E+00
(PID.TID 0000.0001) %MON dynstat_theta_sd             =   4.5714260070901E+00
(PID.TID 0000.0001) %MON dynstat_theta_del2           =   2.6433238498505E-03
(PID.TID 0000.0001) %MON dynstat_salt_max             =   4.1351537394557E+01
(PID.TID 0000.0001) %MON dynstat_salt_min             =   1.8518857120111E+01
(PID.TID 0000.0001) %MON dynstat_salt_mean            =   3.4771973744739E+01
(PID.TID 0000.0001) %MON dynstat_salt_sd              =   5.3177074536420E-01
(PID.TID 0000.0001) %MON dynstat_salt_del2            =   1.0161489024986E-03
(PID.TID 0000.0001) %MON dynstat_sst_max              =   3.0924964676749E+01
(PID.TID 0000.0001) %MON dynstat_sst_min              =  -1.9373435651013E+00
(PID.TID 0000.0001) %MON dynstat_sst_mean             =   1.8107849767244E+01
(PID.TID 0000.0001) %MON dynstat_sst_sd               =   9.8108105918911E+00
(PID.TID 0000.0001) %MON dynstat_sst_del2             =   1.5057235140446E-02
(PID.TID 0000.0001) %MON dynstat_sss_max              =   4.1351537394557E+01
(PID.TID 0000.0001) %MON dynstat_sss_min              =   1.8751633821887E+01
(PID.TID 0000.0001) %MON dynstat_sss_mean             =   3.4625925083497E+01
(PID.TID 0000.0001) %MON dynstat_sss_sd               =   1.4778555662761E+00
(PID.TID 0000.0001) %MON dynstat_sss_del2             =   1.1199649624705E-02
(PID.TID 0000.0001) %MON forcing_qnet_max             =   6.5680447628629E+03
(PID.TID 0000.0001) %MON forcing_qnet_min             =  -1.3928301039366E+03
(PID.TID 0000.0001) %MON forcing_qnet_mean            =   2.5199721441369E+01
(PID.TID 0000.0001) %MON forcing_qnet_sd              =   2.2709479696265E+02
(PID.TID 0000.0001) %MON forcing_qnet_del2            =   6.5082307861847E+00
(PID.TID 0000.0001) %MON forcing_qsw_max              =   0.0000000000000E+00
(PID.TID 0000.0001) %MON forcing_qsw_min              =  -1.0924580989650E+02
(PID.TID 0000.0001) %MON forcing_qsw_mean             =  -1.2878959175540E+01
(PID.TID 0000.0001) %MON forcing_qsw_sd               =   2.3556534452550E+01
(PID.TID 0000.0001) %MON forcing_qsw_del2             =   1.3848090537320E-01
(PID.TID 0000.0001) %MON forcing_empmr_max            =   6.8172137252986E-03
(PID.TID 0000.0001) %MON forcing_empmr_min            =  -9.7999431192875E-02
(PID.TID 0000.0001) %MON forcing_empmr_mean           =  -2.9150501430151E-04
(PID.TID 0000.0001) %MON forcing_empmr_sd             =   4.3173984817857E-03
(PID.TID 0000.0001) %MON forcing_empmr_del2           =   1.7101654299180E-04
(PID.TID 0000.0001) %MON forcing_fu_max               =   3.8475338865737E-01
(PID.TID 0000.0001) %MON forcing_fu_min               =  -3.6387817407077E-01
(PID.TID 0000.0001) %MON forcing_fu_mean              =  -3.4454620505574E-03
(PID.TID 0000.0001) %MON forcing_fu_sd                =   6.2235647696690E-02
(PID.TID 0000.0001) %MON forcing_fu_del2              =   6.1747217095320E-04
(PID.TID 0000.0001) %MON forcing_fv_max               =   3.3165858090998E-01
(PID.TID 0000.0001) %MON forcing_fv_min               =  -2.9373154973503E-01
(PID.TID 0000.0001) %MON forcing_fv_mean              =  -1.4597930874955E-02
(PID.TID 0000.0001) %MON forcing_fv_sd                =   6.3925326426773E-02
(PID.TID 0000.0001) %MON forcing_fv_del2              =   5.4634253766535E-04
(PID.TID 0000.0001) %MON trAdv_CFL_u_max              =   1.6111727273787E-03
(PID.TID 0000.0001) %MON trAdv_CFL_v_max              =   1.6226423963722E-03
(PID.TID 0000.0001) %MON trAdv_CFL_w_max              =   1.9346013786533E-03
(PID.TID 0000.0001) %MON advcfl_uvel_max              =   1.6137222285413E-03
(PID.TID 0000.0001) %MON advcfl_vvel_max              =   1.2686646293280E-03
(PID.TID 0000.0001) %MON advcfl_wvel_max              =   3.4086758675783E-03
(PID.TID 0000.0001) %MON advcfl_W_hf_max              =   2.1098882044670E-03
(PID.TID 0000.0001) %MON pe_b_mean                    =   5.0818308805669E-04
(PID.TID 0000.0001) %MON ke_max                       =   1.4842800007858E-01
(PID.TID 0000.0001) %MON ke_mean                      =   1.6145849789669E-04
(PID.TID 0000.0001) %MON ke_vol                       =   1.3398117988392E+18
(PID.TID 0000.0001) %MON vort_r_min                   =  -3.0419661350386E-06
(PID.TID 0000.0001) %MON vort_r_max                   =   2.2644259440634E-06
(PID.TID 0000.0001) %MON vort_a_mean                  =  -2.0549865324846E-05
(PID.TID 0000.0001) %MON vort_a_sd                    =   7.5259634713417E-05
(PID.TID 0000.0001) %MON vort_p_mean                  =  -2.4783300388609E-05
(PID.TID 0000.0001) %MON vort_p_sd                    =   1.2811906241409E-04
(PID.TID 0000.0001) %MON surfExpan_theta_mean         =  -6.3257618237674E-06
(PID.TID 0000.0001) %MON surfExpan_salt_mean          =   1.0968550723120E-06
(PID.TID 0000.0001) // =======================================================
(PID.TID 0000.0001) // End MONITOR dynamic field statistics
(PID.TID 0000.0001) // =======================================================
(PID.TID 0000.0001) // =======================================================
(PID.TID 0000.0001) // Begin MONITOR SEAICE statistics
(PID.TID 0000.0001) // =======================================================
(PID.TID 0000.0001) %MON seaice_tsnumber              =                 72048
(PID.TID 0000.0001) %MON seaice_time_sec              =   6.4843200000000E+07
(PID.TID 0000.0001) %MON seaice_uice_max              =   2.3833851232637E-01
(PID.TID 0000.0001) %MON seaice_uice_min              =  -4.7633900712099E-01
(PID.TID 0000.0001) %MON seaice_uice_mean             =  -6.7429015208700E-03
(PID.TID 0000.0001) %MON seaice_uice_sd               =   5.5050186302059E-02
(PID.TID 0000.0001) %MON seaice_uice_del2             =   8.8773346530121E-04
(PID.TID 0000.0001) %MON seaice_vice_max              =   4.0088305364911E-01
(PID.TID 0000.0001) %MON seaice_vice_min              =  -3.9644898193096E-01
(PID.TID 0000.0001) %MON seaice_vice_mean             =  -1.4915848018297E-02
(PID.TID 0000.0001) %MON seaice_vice_sd               =   6.0965368030109E-02
(PID.TID 0000.0001) %MON seaice_vice_del2             =   8.7138662598964E-04
(PID.TID 0000.0001) %MON seaice_area_max              =   1.0000000000000E+00
(PID.TID 0000.0001) %MON seaice_area_min              =   0.0000000000000E+00
(PID.TID 0000.0001) %MON seaice_area_mean             =   6.9140146899906E-02
(PID.TID 0000.0001) %MON seaice_area_sd               =   2.3755052713173E-01
(PID.TID 0000.0001) %MON seaice_area_del2             =   1.7533169644908E-03
(PID.TID 0000.0001) %MON seaice_heff_max              =   8.5296744841084E+00
(PID.TID 0000.0001) %MON seaice_heff_min              =   0.0000000000000E+00
(PID.TID 0000.0001) %MON seaice_heff_mean             =   2.0612353218551E-01
(PID.TID 0000.0001) %MON seaice_heff_sd               =   9.8008845150478E-01
(PID.TID 0000.0001) %MON seaice_heff_del2             =   6.2400539957416E-03
(PID.TID 0000.0001) %MON seaice_hsnow_max             =   2.0318126305568E+00
(PID.TID 0000.0001) %MON seaice_hsnow_min             =   0.0000000000000E+00
(PID.TID 0000.0001) %MON seaice_hsnow_mean            =   2.2746670678058E-02
(PID.TID 0000.0001) %MON seaice_hsnow_sd              =   1.1946350842377E-01
(PID.TID 0000.0001) %MON seaice_hsnow_del2            =   1.4626324192889E-03
(PID.TID 0000.0001) // =======================================================
(PID.TID 0000.0001) // End MONITOR SEAICE statistics
(PID.TID 0000.0001) // =======================================================
 Computing Diagnostic #     86  oceQnet      Counter:      48   Parms: SM      U1      
 Computing Diagnostic #     87  oceQsw       Counter:      48   Parms: SM      U1      
 Computing Diagnostic #     84  oceFWflx     Counter:      48   Parms: SM      U1      
 Computing Diagnostic #     85  oceSflux     Counter:      48   Parms: SM      U1      
 Computing Diagnostic #     80  oceTAUX      Counter:      48   Parms: UU      U1      
           Vector  Mate for  oceTAUX      Diagnostic #     81  oceTAUY  exists 
 Computing Diagnostic #     81  oceTAUY      Counter:      48   Parms: VV      U1      
           Vector  Mate for  oceTAUY      Diagnostic #     80  oceTAUX  exists 
 Computing Diagnostic #     26  THETA        Counter:      48   Parms: SMR     MR      
 Computing Diagnostic #     27  SALT         Counter:      48   Parms: SMR     MR      
 Computing Diagnostic #     30  UVEL         Counter:      48   Parms: UUR     MR      
           Vector  Mate for  UVEL         Diagnostic #     31  VVEL     exists 
 Computing Diagnostic #     31  VVEL         Counter:      48   Parms: VVR     MR      
           Vector  Mate for  VVEL         Diagnostic #     30  UVEL     exists 
 Computing Diagnostic #    211  SIarea       Counter:      48   Parms: SM      M1      
 Computing Diagnostic #    214  SIheff       Counter:      48   Parms: SM      M1      
 Computing Diagnostic #    216  SIhsnow      Counter:      48   Parms: SM      M1      
 Computing Diagnostic #     83  sIceLoad     Counter:      48   Parms: SM      U1      
 Computing Diagnostic #    220  SIuice       Counter:      48   Parms: UU      M1      
           Vector  Mate for  SIuice       Diagnostic #    221  SIvice   exists 
 Computing Diagnostic #    221  SIvice       Counter:      48   Parms: VV      M1      
           Vector  Mate for  SIvice       Diagnostic #    220  SIuice   exists 
 Computing Diagnostic #    222  SItaux       Counter:      48   Parms: UU      U1      
           Vector  Mate for  SItaux       Diagnostic #    223  SItauy   exists 
 Computing Diagnostic #    223  SItauy       Counter:      48   Parms: VV      U1      
           Vector  Mate for  SItauy       Diagnostic #    222  SItaux   exists 
 Compute Stats, Diag. #    211  SIarea    vol(   0 ): 1.456E+15  Parms: SM      M1      
 Compute Stats, Diag. #    214  SIheff    vol(   0 ): 1.456E+15  Parms: SM      M1      
 Compute Stats, Diag. #    216  SIhsnow   vol(   0 ): 1.456E+15  Parms: SM      M1      
 Compute Stats, Diag. #     83  sIceLoad  vol(   0 ): 1.456E+15  Parms: SM      U1      
 Compute Stats, Diag. #    220  SIuice    vol(   0 ): 1.383E+15  Parms: UU      M1      
 Compute Stats, Diag. #    221  SIvice    vol(   0 ): 1.391E+15  Parms: VV      M1      
 Compute Stats, Diag. #    222  SItaux    vol(   0 ): 1.383E+15  Parms: UU      U1      
 Compute Stats, Diag. #    223  SItauy    vol(   0 ): 1.391E+15  Parms: VV      U1      
 SEAICE_LSR: Residual Initial ipass,Uice,Vice=    1  3.22573789E-03  3.32655675E-03
 SEAICE_LSR (ipass=   1) iters,dU,Resid=     6  6.49544646E-05  7.45992636E-05
 SEAICE_LSR (ipass=   1) iters,dV,Resid=     6  7.69617808E-06  2.20657384E-05
 SEAICE_LSR: Residual Initial ipass,Uice,Vice=    2  2.28970233E-03  2.61649467E-03
 SEAICE_LSR (ipass=   2) iters,dU,Resid=     4  9.18628852E-05  9.37259080E-05
 SEAICE_LSR (ipass=   2) iters,dV,Resid=     4  4.94836004E-05  4.16783313E-05
 cg2d: Sum(rhs),rhsMax =  -3.30404426025869E+01  6.82681375296154E+01
(PID.TID 0000.0001)      cg2d_init_res =   1.35689742289958E-01
(PID.TID 0000.0001)      cg2d_iters(min,last) =      -1      10
(PID.TID 0000.0001)      cg2d_last_res =   7.65703956606191E-08
(PID.TID 0000.0001) // =======================================================
(PID.TID 0000.0001) // Begin MONITOR dynamic field statistics
(PID.TID 0000.0001) // =======================================================
(PID.TID 0000.0001) %MON time_tsnumber                =                 72049
(PID.TID 0000.0001) %MON time_secondsf                =   6.4844100000000E+07
(PID.TID 0000.0001) %MON dynstat_eta_max              =   3.0858643643758E+00
(PID.TID 0000.0001) %MON dynstat_eta_min              =  -1.6005888665514E+00
(PID.TID 0000.0001) %MON dynstat_eta_mean             =   2.6209883125655E-02
(PID.TID 0000.0001) %MON dynstat_eta_sd               =   6.1680909819060E-01
(PID.TID 0000.0001) %MON dynstat_eta_del2             =   2.4731417054089E-03
(PID.TID 0000.0001) %MON dynstat_uvel_max             =   3.3490198605589E-01
(PID.TID 0000.0001) %MON dynstat_uvel_min             =  -5.6633579652392E-01
(PID.TID 0000.0001) %MON dynstat_uvel_mean            =  -5.2675030713396E-04
(PID.TID 0000.0001) %MON dynstat_uvel_sd              =   1.2702574860946E-02
(PID.TID 0000.0001) %MON dynstat_uvel_del2            =   8.9877774370800E-05
(PID.TID 0000.0001) %MON dynstat_vvel_max             =   3.7564137167309E-01
(PID.TID 0000.0001) %MON dynstat_vvel_min             =  -4.6251607597522E-01
(PID.TID 0000.0001) %MON dynstat_vvel_mean            =   2.1468972607274E-04
(PID.TID 0000.0001) %MON dynstat_vvel_sd              =   1.3710814668056E-02
(PID.TID 0000.0001) %MON dynstat_vvel_del2            =   8.6782484460943E-05
(PID.TID 0000.0001) %MON dynstat_wvel_max             =   1.5925344799353E-04
(PID.TID 0000.0001) %MON dynstat_wvel_min             =  -2.0048759949913E-04
(PID.TID 0000.0001) %MON dynstat_wvel_mean            =  -2.0831370152434E-07
(PID.TID 0000.0001) %MON dynstat_wvel_sd              =   7.8909963683004E-06
(PID.TID 0000.0001) %MON dynstat_wvel_del2            =   7.6470307330751E-08
(PID.TID 0000.0001) %MON dynstat_theta_max            =   3.0924990564859E+01
(PID.TID 0000.0001) %MON dynstat_theta_min            =  -3.0043420190028E+00
(PID.TID 0000.0001) %MON dynstat_theta_mean           =   3.9091388493065E+00
(PID.TID 0000.0001) %MON dynstat_theta_sd             =   4.5714273125758E+00
(PID.TID 0000.0001) %MON dynstat_theta_del2           =   2.6432067662666E-03
(PID.TID 0000.0001) %MON dynstat_salt_max             =   4.1351192834438E+01
(PID.TID 0000.0001) %MON dynstat_salt_min             =   1.8518867506653E+01
(PID.TID 0000.0001) %MON dynstat_salt_mean            =   3.4771970957530E+01
(PID.TID 0000.0001) %MON dynstat_salt_sd              =   5.3178755438603E-01
(PID.TID 0000.0001) %MON dynstat_salt_del2            =   1.0205249154686E-03
(PID.TID 0000.0001) %MON dynstat_sst_max              =   3.0924990564859E+01
(PID.TID 0000.0001) %MON dynstat_sst_min              =  -1.9371314952485E+00
(PID.TID 0000.0001) %MON dynstat_sst_mean             =   1.8107779732309E+01
(PID.TID 0000.0001) %MON dynstat_sst_sd               =   9.8108892587020E+00
(PID.TID 0000.0001) %MON dynstat_sst_del2             =   1.5055194496243E-02
(PID.TID 0000.0001) %MON dynstat_sss_max              =   4.1351192834438E+01
(PID.TID 0000.0001) %MON dynstat_sss_min              =   1.8751670726833E+01
(PID.TID 0000.0001) %MON dynstat_sss_mean             =   3.4625730261325E+01
(PID.TID 0000.0001) %MON dynstat_sss_sd               =   1.4782778210635E+00
(PID.TID 0000.0001) %MON dynstat_sss_del2             =   1.1262267469658E-02
(PID.TID 0000.0001) %MON forcing_qnet_max             =   9.9828852391689E+03
(PID.TID 0000.0001) %MON forcing_qnet_min             =  -1.3741426217486E+03
(PID.TID 0000.0001) %MON forcing_qnet_mean            =   2.3139797940299E+01
(PID.TID 0000.0001) %MON forcing_qnet_sd              =   2.5301905153849E+02
(PID.TID 0000.0001) %MON forcing_qnet_del2            =   8.6732735198004E+00
(PID.TID 0000.0001) %MON forcing_qsw_max              =   0.0000000000000E+00
(PID.TID 0000.0001) %MON forcing_qsw_min              =  -1.0762632418043E+02
(PID.TID 0000.0001) %MON forcing_qsw_mean             =  -1.3074767194491E+01
(PID.TID 0000.0001) %MON forcing_qsw_sd               =   2.3316894036690E+01
(PID.TID 0000.0001) %MON forcing_qsw_del2             =   1.3924437069223E-01
(PID.TID 0000.0001) %MON forcing_empmr_max            =   6.7468550987542E-03
(PID.TID 0000.0001) %MON forcing_empmr_min            =  -9.6990004181862E-02
(PID.TID 0000.0001) %MON forcing_empmr_mean           =  -2.8984411991677E-04
(PID.TID 0000.0001) %MON forcing_empmr_sd             =   4.2738356464833E-03
(PID.TID 0000.0001) %MON forcing_empmr_del2           =   1.6930503005454E-04
(PID.TID 0000.0001) %MON forcing_fu_max               =   3.8646888076556E-01
(PID.TID 0000.0001) %MON forcing_fu_min               =  -3.6286638297086E-01
(PID.TID 0000.0001) %MON forcing_fu_mean              =  -3.3654375621239E-03
(PID.TID 0000.0001) %MON forcing_fu_sd                =   6.2336784838168E-02
(PID.TID 0000.0001) %MON forcing_fu_del2              =   6.1900572030888E-04
(PID.TID 0000.0001) %MON forcing_fv_max               =   3.2921151093894E-01
(PID.TID 0000.0001) %MON forcing_fv_min               =  -2.9366726464505E-01
(PID.TID 0000.0001) %MON forcing_fv_mean              =  -1.4696696792112E-02
(PID.TID 0000.0001) %MON forcing_fv_sd                =   6.3720530383220E-02
(PID.TID 0000.0001) %MON forcing_fv_del2              =   5.4520835451270E-04
(PID.TID 0000.0001) %MON trAdv_CFL_u_max              =   1.6093311878631E-03
(PID.TID 0000.0001) %MON trAdv_CFL_v_max              =   1.4323950908409E-03
(PID.TID 0000.0001) %MON trAdv_CFL_w_max              =   1.8405918410472E-03
(PID.TID 0000.0001) %MON advcfl_uvel_max              =   1.6110543575285E-03
(PID.TID 0000.0001) %MON advcfl_vvel_max              =   1.3522611347993E-03
(PID.TID 0000.0001) %MON advcfl_wvel_max              =   3.3735653628474E-03
(PID.TID 0000.0001) %MON advcfl_W_hf_max              =   2.0475590897449E-03
(PID.TID 0000.0001) %MON pe_b_mean                    =   5.0774589516049E-04
(PID.TID 0000.0001) %MON ke_max                       =   1.5931117491695E-01
(PID.TID 0000.0001) %MON ke_mean                      =   1.6149101242898E-04
(PID.TID 0000.0001) %MON ke_vol                       =   1.3398118910782E+18
(PID.TID 0000.0001) %MON vort_r_min                   =  -3.2024444853356E-06
(PID.TID 0000.0001) %MON vort_r_max                   =   2.3439815320620E-06
(PID.TID 0000.0001) %MON vort_a_mean                  =  -2.0549865324846E-05
(PID.TID 0000.0001) %MON vort_a_sd                    =   7.5259646035517E-05
(PID.TID 0000.0001) %MON vort_p_mean                  =  -2.4783298612254E-05
(PID.TID 0000.0001) %MON vort_p_sd                    =   1.2811904470773E-04
(PID.TID 0000.0001) %MON surfExpan_theta_mean         =  -6.4361882261639E-06
(PID.TID 0000.0001) %MON surfExpan_salt_mean          =   1.1292822396160E-06
(PID.TID 0000.0001) // =======================================================
(PID.TID 0000.0001) // End MONITOR dynamic field statistics
(PID.TID 0000.0001) // =======================================================
(PID.TID 0000.0001) // =======================================================
(PID.TID 0000.0001) // Begin MONITOR SEAICE statistics
(PID.TID 0000.0001) // =======================================================
(PID.TID 0000.0001) %MON seaice_tsnumber              =                 72049
(PID.TID 0000.0001) %MON seaice_time_sec              =   6.4844100000000E+07
(PID.TID 0000.0001) %MON seaice_uice_max              =   2.3643923148073E-01
(PID.TID 0000.0001) %MON seaice_uice_min              =  -4.0492169753461E-01
(PID.TID 0000.0001) %MON seaice_uice_mean             =  -6.6100498708713E-03
(PID.TID 0000.0001) %MON seaice_uice_sd               =   5.4804383915900E-02
(PID.TID 0000.0001) %MON seaice_uice_del2             =   8.9055405602575E-04
(PID.TID 0000.0001) %MON seaice_vice_max              =   3.4894065541978E-01
(PID.TID 0000.0001) %MON seaice_vice_min              =  -4.2590361228151E-01
(PID.TID 0000.0001) %MON seaice_vice_mean             =  -1.4908804692556E-02
(PID.TID 0000.0001) %MON seaice_vice_sd               =   6.1235872179032E-02
(PID.TID 0000.0001) %MON seaice_vice_del2             =   8.4930583582230E-04
(PID.TID 0000.0001) %MON seaice_area_max              =   1.0000000000000E+00
(PID.TID 0000.0001) %MON seaice_area_min              =   0.0000000000000E+00
(PID.TID 0000.0001) %MON seaice_area_mean             =   6.9134305750923E-02
(PID.TID 0000.0001) %MON seaice_area_sd               =   2.3753406272865E-01
(PID.TID 0000.0001) %MON seaice_area_del2             =   1.7523809092520E-03
(PID.TID 0000.0001) %MON seaice_heff_max              =   8.5306162528864E+00
(PID.TID 0000.0001) %MON seaice_heff_min              =   0.0000000000000E+00
(PID.TID 0000.0001) %MON seaice_heff_mean             =   2.0612022814226E-01
(PID.TID 0000.0001) %MON seaice_heff_sd               =   9.8010632066514E-01
(PID.TID 0000.0001) %MON seaice_heff_del2             =   6.2400398368570E-03
(PID.TID 0000.0001) %MON seaice_hsnow_max             =   2.0318169379233E+00
(PID.TID 0000.0001) %MON seaice_hsnow_min             =   0.0000000000000E+00
(PID.TID 0000.0001) %MON seaice_hsnow_mean            =   2.2745982655672E-02
(PID.TID 0000.0001) %MON seaice_hsnow_sd              =   1.1946004120937E-01
(PID.TID 0000.0001) %MON seaice_hsnow_del2            =   1.4625419181234E-03
(PID.TID 0000.0001) // =======================================================
(PID.TID 0000.0001) // End MONITOR SEAICE statistics
(PID.TID 0000.0001) // =======================================================
 Computing Diagnostic #    211  SIarea       Counter:       1   Parms: SM      M1      
 Computing Diagnostic #    214  SIheff       Counter:       1   Parms: SM      M1      
 Computing Diagnostic #    216  SIhsnow      Counter:       1   Parms: SM      M1      
 Computing Diagnostic #     83  sIceLoad     Counter:       1   Parms: SM      U1      
 Computing Diagnostic #    220  SIuice       Counter:       1   Parms: UU      M1      
           Vector  Mate for  SIuice       Diagnostic #    221  SIvice   exists 
 Computing Diagnostic #    221  SIvice       Counter:       1   Parms: VV      M1      
           Vector  Mate for  SIvice       Diagnostic #    220  SIuice   exists 
 Computing Diagnostic #    222  SItaux       Counter:       1   Parms: UU      U1      
           Vector  Mate for  SItaux       Diagnostic #    223  SItauy   exists 
 Computing Diagnostic #    223  SItauy       Counter:       1   Parms: VV      U1      
           Vector  Mate for  SItauy       Diagnostic #    222  SItaux   exists 
 Computing Diagnostic #      1  SDIAG1       Counter:       1   Parms: SM      L1      
 Computing Diagnostic #    282  SIareaN      Counter:       1   Parms: SM      MX      
 Computing Diagnostic #    281  SIheffN      Counter:       1   Parms: SM      MX      
 Computing Diagnostic #    283  SIhsnowN     Counter:       1   Parms: SM      MX      
 SEAICE_LSR: Residual Initial ipass,Uice,Vice=    1  3.21202844E-03  3.39636925E-03
 SEAICE_LSR (ipass=   1) iters,dU,Resid=     8  5.17766124E-05  5.72721868E-05
 SEAICE_LSR (ipass=   1) iters,dV,Resid=     8  1.28508116E-06  9.67787717E-06
 SEAICE_LSR: Residual Initial ipass,Uice,Vice=    2  2.10092713E-03  2.80982294E-03
 SEAICE_LSR (ipass=   2) iters,dU,Resid=     6  5.99118706E-05  6.70885228E-05
 SEAICE_LSR (ipass=   2) iters,dV,Resid=     6  2.04886098E-06  1.06855205E-05
 cg2d: Sum(rhs),rhsMax =  -3.37427392489192E+01  6.74834953829803E+01
(PID.TID 0000.0001)      cg2d_init_res =   1.35861258479502E-01
(PID.TID 0000.0001)      cg2d_iters(min,last) =      -1      10
(PID.TID 0000.0001)      cg2d_last_res =   7.68395990948853E-08
(PID.TID 0000.0001) // =======================================================
(PID.TID 0000.0001) // Begin MONITOR dynamic field statistics
(PID.TID 0000.0001) // =======================================================
(PID.TID 0000.0001) %MON time_tsnumber                =                 72050
(PID.TID 0000.0001) %MON time_secondsf                =   6.4845000000000E+07
(PID.TID 0000.0001) %MON dynstat_eta_max              =   3.0159785215743E+00
(PID.TID 0000.0001) %MON dynstat_eta_min              =  -1.5987493242208E+00
(PID.TID 0000.0001) %MON dynstat_eta_mean             =   2.6459344350431E-02
(PID.TID 0000.0001) %MON dynstat_eta_sd               =   6.1646637431473E-01
(PID.TID 0000.0001) %MON dynstat_eta_del2             =   2.4447637667467E-03
(PID.TID 0000.0001) %MON dynstat_uvel_max             =   3.2401416441044E-01
(PID.TID 0000.0001) %MON dynstat_uvel_min             =  -5.6287214877379E-01
(PID.TID 0000.0001) %MON dynstat_uvel_mean            =  -5.2104513684925E-04
(PID.TID 0000.0001) %MON dynstat_uvel_sd              =   1.2686196124138E-02
(PID.TID 0000.0001) %MON dynstat_uvel_del2            =   9.0876424790951E-05
(PID.TID 0000.0001) %MON dynstat_vvel_max             =   4.2039492674059E-01
(PID.TID 0000.0001) %MON dynstat_vvel_min             =  -4.9189124777466E-01
(PID.TID 0000.0001) %MON dynstat_vvel_mean            =   2.5892991761529E-04
(PID.TID 0000.0001) %MON dynstat_vvel_sd              =   1.3740026078295E-02
(PID.TID 0000.0001) %MON dynstat_vvel_del2            =   8.6009533319850E-05
(PID.TID 0000.0001) %MON dynstat_wvel_max             =   1.5488712029575E-04
(PID.TID 0000.0001) %MON dynstat_wvel_min             =  -1.9272329863802E-04
(PID.TID 0000.0001) %MON dynstat_wvel_mean            =  -2.3262889349379E-07
(PID.TID 0000.0001) %MON dynstat_wvel_sd              =   7.9158872760483E-06
(PID.TID 0000.0001) %MON dynstat_wvel_del2            =   7.6903942415674E-08
(PID.TID 0000.0001) %MON dynstat_theta_max            =   3.0925003803918E+01
(PID.TID 0000.0001) %MON dynstat_theta_min            =  -3.0044638252139E+00
(PID.TID 0000.0001) %MON dynstat_theta_mean           =   3.9091391160680E+00
(PID.TID 0000.0001) %MON dynstat_theta_sd             =   4.5714285598167E+00
(PID.TID 0000.0001) %MON dynstat_theta_del2           =   2.6430838144886E-03
(PID.TID 0000.0001) %MON dynstat_salt_max             =   4.1350856061224E+01
(PID.TID 0000.0001) %MON dynstat_salt_min             =   1.8518877873590E+01
(PID.TID 0000.0001) %MON dynstat_salt_mean            =   3.4771968195226E+01
(PID.TID 0000.0001) %MON dynstat_salt_sd              =   5.3180409863683E-01
(PID.TID 0000.0001) %MON dynstat_salt_del2            =   1.0248307952291E-03
(PID.TID 0000.0001) %MON dynstat_sst_max              =   3.0925003803918E+01
(PID.TID 0000.0001) %MON dynstat_sst_min              =  -1.9369041523909E+00
(PID.TID 0000.0001) %MON dynstat_sst_mean             =   1.8107708650924E+01
(PID.TID 0000.0001) %MON dynstat_sst_sd               =   9.8109705774842E+00
(PID.TID 0000.0001) %MON dynstat_sst_del2             =   1.5053188315455E-02
(PID.TID 0000.0001) %MON dynstat_sss_max              =   4.1350856061224E+01
(PID.TID 0000.0001) %MON dynstat_sss_min              =   1.8751711632504E+01
(PID.TID 0000.0001) %MON dynstat_sss_mean             =   3.4625537167790E+01
(PID.TID 0000.0001) %MON dynstat_sss_sd               =   1.4786941185368E+00
(PID.TID 0000.0001) %MON dynstat_sss_del2             =   1.1323817739454E-02
(PID.TID 0000.0001) %MON forcing_qnet_max             =   1.2625687900342E+04
(PID.TID 0000.0001) %MON forcing_qnet_min             =  -1.3546325172371E+03
(PID.TID 0000.0001) %MON forcing_qnet_mean            =   2.3454913859912E+01
(PID.TID 0000.0001) %MON forcing_qnet_sd              =   2.9268082966617E+02
(PID.TID 0000.0001) %MON forcing_qnet_del2            =   1.1531765161338E+01
(PID.TID 0000.0001) %MON forcing_qsw_max              =   0.0000000000000E+00
(PID.TID 0000.0001) %MON forcing_qsw_min              =  -1.0632827269977E+02
(PID.TID 0000.0001) %MON forcing_qsw_mean             =  -1.3187383590410E+01
(PID.TID 0000.0001) %MON forcing_qsw_sd               =   2.3215292869408E+01
(PID.TID 0000.0001) %MON forcing_qsw_del2             =   1.3936942965887E-01
(PID.TID 0000.0001) %MON forcing_empmr_max            =   6.6773816943169E-03
(PID.TID 0000.0001) %MON forcing_empmr_min            =  -9.5990650355816E-02
(PID.TID 0000.0001) %MON forcing_empmr_mean           =  -2.8688040849221E-04
(PID.TID 0000.0001) %MON forcing_empmr_sd             =   4.2311773587527E-03
(PID.TID 0000.0001) %MON forcing_empmr_del2           =   1.6761193722490E-04
(PID.TID 0000.0001) %MON forcing_fu_max               =   3.8431916851935E-01
(PID.TID 0000.0001) %MON forcing_fu_min               =  -3.6201693372622E-01
(PID.TID 0000.0001) %MON forcing_fu_mean              =  -3.3086258985727E-03
(PID.TID 0000.0001) %MON forcing_fu_sd                =   6.2255698579560E-02
(PID.TID 0000.0001) %MON forcing_fu_del2              =   6.1830757859943E-04
(PID.TID 0000.0001) %MON forcing_fv_max               =   3.2884514992781E-01
(PID.TID 0000.0001) %MON forcing_fv_min               =  -2.9320989980296E-01
(PID.TID 0000.0001) %MON forcing_fv_mean              =  -1.4773175668433E-02
(PID.TID 0000.0001) %MON forcing_fv_sd                =   6.3589797115388E-02
(PID.TID 0000.0001) %MON forcing_fv_del2              =   5.4520500909217E-04
(PID.TID 0000.0001) %MON trAdv_CFL_u_max              =   1.6003533575765E-03
(PID.TID 0000.0001) %MON trAdv_CFL_v_max              =   1.4779353652030E-03
(PID.TID 0000.0001) %MON trAdv_CFL_w_max              =   1.7612394412417E-03
(PID.TID 0000.0001) %MON advcfl_uvel_max              =   1.6012013253962E-03
(PID.TID 0000.0001) %MON advcfl_vvel_max              =   1.4381455077233E-03
(PID.TID 0000.0001) %MON advcfl_wvel_max              =   3.3388052297675E-03
(PID.TID 0000.0001) %MON advcfl_W_hf_max              =   1.9914160408214E-03
(PID.TID 0000.0001) %MON pe_b_mean                    =   5.0720028929282E-04
(PID.TID 0000.0001) %MON ke_max                       =   1.6985542250348E-01
(PID.TID 0000.0001) %MON ke_mean                      =   1.6167903651928E-04
(PID.TID 0000.0001) %MON ke_vol                       =   1.3398119827916E+18
(PID.TID 0000.0001) %MON vort_r_min                   =  -3.3605524616728E-06
(PID.TID 0000.0001) %MON vort_r_max                   =   2.4111248259166E-06
(PID.TID 0000.0001) %MON vort_a_mean                  =  -2.0549865324846E-05
(PID.TID 0000.0001) %MON vort_a_sd                    =   7.5259656914111E-05
(PID.TID 0000.0001) %MON vort_p_mean                  =  -2.4783296777810E-05
(PID.TID 0000.0001) %MON vort_p_sd                    =   1.2811902817501E-04
(PID.TID 0000.0001) %MON surfExpan_theta_mean         =  -6.5345700330447E-06
(PID.TID 0000.0001) %MON surfExpan_salt_mean          =   1.1609546999570E-06
(PID.TID 0000.0001) // =======================================================
(PID.TID 0000.0001) // End MONITOR dynamic field statistics
(PID.TID 0000.0001) // =======================================================
(PID.TID 0000.0001) // =======================================================
(PID.TID 0000.0001) // Begin MONITOR SEAICE statistics
(PID.TID 0000.0001) // =======================================================
(PID.TID 0000.0001) %MON seaice_tsnumber              =                 72050
(PID.TID 0000.0001) %MON seaice_time_sec              =   6.4845000000000E+07
(PID.TID 0000.0001) %MON seaice_uice_max              =   2.3461026484850E-01
(PID.TID 0000.0001) %MON seaice_uice_min              =  -3.4008402359290E-01
(PID.TID 0000.0001) %MON seaice_uice_mean             =  -6.4643589345813E-03
(PID.TID 0000.0001) %MON seaice_uice_sd               =   5.4666591371563E-02
(PID.TID 0000.0001) %MON seaice_uice_del2             =   8.9331320841424E-04
(PID.TID 0000.0001) %MON seaice_vice_max              =   3.9061633119452E-01
(PID.TID 0000.0001) %MON seaice_vice_min              =  -4.5401886111758E-01
(PID.TID 0000.0001) %MON seaice_vice_mean             =  -1.4904905509010E-02
(PID.TID 0000.0001) %MON seaice_vice_sd               =   6.1560262865137E-02
(PID.TID 0000.0001) %MON seaice_vice_del2             =   8.3860739753314E-04
(PID.TID 0000.0001) %MON seaice_area_max              =   1.0000000000000E+00
(PID.TID 0000.0001) %MON seaice_area_min              =   0.0000000000000E+00
(PID.TID 0000.0001) %MON seaice_area_mean             =   6.9128398178883E-02
(PID.TID 0000.0001) %MON seaice_area_sd               =   2.3751753414978E-01
(PID.TID 0000.0001) %MON seaice_area_del2             =   1.7514667405493E-03
(PID.TID 0000.0001) %MON seaice_heff_max              =   8.5315316673929E+00
(PID.TID 0000.0001) %MON seaice_heff_min              =   0.0000000000000E+00
(PID.TID 0000.0001) %MON seaice_heff_mean             =   2.0611661678679E-01
(PID.TID 0000.0001) %MON seaice_heff_sd               =   9.8012274343342E-01
(PID.TID 0000.0001) %MON seaice_heff_del2             =   6.2400170925934E-03
(PID.TID 0000.0001) %MON seaice_hsnow_max             =   2.0318153744892E+00
(PID.TID 0000.0001) %MON seaice_hsnow_min             =   0.0000000000000E+00
(PID.TID 0000.0001) %MON seaice_hsnow_mean            =   2.2745275119205E-02
(PID.TID 0000.0001) %MON seaice_hsnow_sd              =   1.1945650319702E-01
(PID.TID 0000.0001) %MON seaice_hsnow_del2            =   1.4624515720975E-03
(PID.TID 0000.0001) // =======================================================
(PID.TID 0000.0001) // End MONITOR SEAICE statistics
(PID.TID 0000.0001) // =======================================================
 SEAICE_LSR: Residual Initial ipass,Uice,Vice=    1  3.02602632E-03  3.31493414E-03
 SEAICE_LSR (ipass=   1) iters,dU,Resid=     8  5.42557184E-05  5.90648720E-05
 SEAICE_LSR (ipass=   1) iters,dV,Resid=     8  1.37037188E-06  9.12563354E-06
 SEAICE_LSR: Residual Initial ipass,Uice,Vice=    2  1.91870650E-03  2.63791537E-03
 SEAICE_LSR (ipass=   2) iters,dU,Resid=     6  6.24479927E-05  6.87802484E-05
 SEAICE_LSR (ipass=   2) iters,dV,Resid=     6  4.80682679E-06  9.92542084E-06
 cg2d: Sum(rhs),rhsMax =  -3.46504339150648E+01  6.63328741419614E+01
(PID.TID 0000.0001)      cg2d_init_res =   1.39105918219442E-01
(PID.TID 0000.0001)      cg2d_iters(min,last) =      -1      10
(PID.TID 0000.0001)      cg2d_last_res =   7.72810786000648E-08
(PID.TID 0000.0001) // =======================================================
(PID.TID 0000.0001) // Begin MONITOR dynamic field statistics
(PID.TID 0000.0001) // =======================================================
(PID.TID 0000.0001) %MON time_tsnumber                =                 72051
(PID.TID 0000.0001) %MON time_secondsf                =   6.4845900000000E+07
(PID.TID 0000.0001) %MON dynstat_eta_max              =   2.9543354272852E+00
(PID.TID 0000.0001) %MON dynstat_eta_min              =  -1.5969226378353E+00
(PID.TID 0000.0001) %MON dynstat_eta_mean             =   2.6707833862143E-02
(PID.TID 0000.0001) %MON dynstat_eta_sd               =   6.1606451441138E-01
(PID.TID 0000.0001) %MON dynstat_eta_del2             =   2.3967429351944E-03
(PID.TID 0000.0001) %MON dynstat_uvel_max             =   3.1160674311680E-01
(PID.TID 0000.0001) %MON dynstat_uvel_min             =  -5.6720933591198E-01
(PID.TID 0000.0001) %MON dynstat_uvel_mean            =  -5.1263715900849E-04
(PID.TID 0000.0001) %MON dynstat_uvel_sd              =   1.2679442929663E-02
(PID.TID 0000.0001) %MON dynstat_uvel_del2            =   9.1933778375269E-05
(PID.TID 0000.0001) %MON dynstat_vvel_max             =   4.5807896638394E-01
(PID.TID 0000.0001) %MON dynstat_vvel_min             =  -5.1964624647675E-01
(PID.TID 0000.0001) %MON dynstat_vvel_mean            =   3.0046637283586E-04
(PID.TID 0000.0001) %MON dynstat_vvel_sd              =   1.3771232024820E-02
(PID.TID 0000.0001) %MON dynstat_vvel_del2            =   8.6076668794368E-05
(PID.TID 0000.0001) %MON dynstat_wvel_max             =   1.5095330972366E-04
(PID.TID 0000.0001) %MON dynstat_wvel_min             =  -1.9132858556938E-04
(PID.TID 0000.0001) %MON dynstat_wvel_mean            =  -2.5613765025570E-07
(PID.TID 0000.0001) %MON dynstat_wvel_sd              =   7.9467941852702E-06
(PID.TID 0000.0001) %MON dynstat_wvel_del2            =   7.7311890238794E-08
(PID.TID 0000.0001) %MON dynstat_theta_max            =   3.0925003166999E+01
(PID.TID 0000.0001) %MON dynstat_theta_min            =  -3.0046189165145E+00
(PID.TID 0000.0001) %MON dynstat_theta_mean           =   3.9091395922289E+00
(PID.TID 0000.0001) %MON dynstat_theta_sd             =   4.5714303110297E+00
(PID.TID 0000.0001) %MON dynstat_theta_del2           =   2.6429415719689E-03
(PID.TID 0000.0001) %MON dynstat_salt_max             =   4.1350529086250E+01
(PID.TID 0000.0001) %MON dynstat_salt_min             =   1.8518888223148E+01
(PID.TID 0000.0001) %MON dynstat_salt_mean            =   3.4771965513636E+01
(PID.TID 0000.0001) %MON dynstat_salt_sd              =   5.3182057121779E-01
(PID.TID 0000.0001) %MON dynstat_salt_del2            =   1.0290614962241E-03
(PID.TID 0000.0001) %MON dynstat_sst_max              =   3.0925003166999E+01
(PID.TID 0000.0001) %MON dynstat_sst_min              =  -1.9366614647498E+00
(PID.TID 0000.0001) %MON dynstat_sst_mean             =   1.8107651784258E+01
(PID.TID 0000.0001) %MON dynstat_sst_sd               =   9.8110471194653E+00
(PID.TID 0000.0001) %MON dynstat_sst_del2             =   1.5050718392427E-02
(PID.TID 0000.0001) %MON dynstat_sss_max              =   4.1350529086250E+01
(PID.TID 0000.0001) %MON dynstat_sss_min              =   1.8751756642553E+01
(PID.TID 0000.0001) %MON dynstat_sss_mean             =   3.4625349153572E+01
(PID.TID 0000.0001) %MON dynstat_sss_sd               =   1.4791090941963E+00
(PID.TID 0000.0001) %MON dynstat_sss_del2             =   1.1384227985595E-02
(PID.TID 0000.0001) %MON forcing_qnet_max             =   7.2519285686671E+03
(PID.TID 0000.0001) %MON forcing_qnet_min             =  -1.3353682610616E+03
(PID.TID 0000.0001) %MON forcing_qnet_mean            =   1.9833868270808E+01
(PID.TID 0000.0001) %MON forcing_qnet_sd              =   2.2664059790558E+02
(PID.TID 0000.0001) %MON forcing_qnet_del2            =   6.6572772716378E+00
(PID.TID 0000.0001) %MON forcing_qsw_max              =   0.0000000000000E+00
(PID.TID 0000.0001) %MON forcing_qsw_min              =  -1.0458994250129E+02
(PID.TID 0000.0001) %MON forcing_qsw_mean             =  -1.3271958062943E+01
(PID.TID 0000.0001) %MON forcing_qsw_sd               =   2.3099543250008E+01
(PID.TID 0000.0001) %MON forcing_qsw_del2             =   1.3935879033540E-01
(PID.TID 0000.0001) %MON forcing_empmr_max            =   6.6084996797144E-03
(PID.TID 0000.0001) %MON forcing_empmr_min            =  -9.5002204179764E-02
(PID.TID 0000.0001) %MON forcing_empmr_mean           =  -2.8576293846879E-04
(PID.TID 0000.0001) %MON forcing_empmr_sd             =   4.1894922007712E-03
(PID.TID 0000.0001) %MON forcing_empmr_del2           =   1.6594025630768E-04
(PID.TID 0000.0001) %MON forcing_fu_max               =   3.8289111046956E-01
(PID.TID 0000.0001) %MON forcing_fu_min               =  -3.6073043487908E-01
(PID.TID 0000.0001) %MON forcing_fu_mean              =  -3.2653851728354E-03
(PID.TID 0000.0001) %MON forcing_fu_sd                =   6.2162566555549E-02
(PID.TID 0000.0001) %MON forcing_fu_del2              =   6.1800544448937E-04
(PID.TID 0000.0001) %MON forcing_fv_max               =   3.2771870942650E-01
(PID.TID 0000.0001) %MON forcing_fv_min               =  -2.9260126398823E-01
(PID.TID 0000.0001) %MON forcing_fv_mean              =  -1.4834606142966E-02
(PID.TID 0000.0001) %MON forcing_fv_sd                =   6.3418421931821E-02
(PID.TID 0000.0001) %MON forcing_fv_del2              =   5.4422796969619E-04
(PID.TID 0000.0001) %MON trAdv_CFL_u_max              =   1.6493401572307E-03
(PID.TID 0000.0001) %MON trAdv_CFL_v_max              =   1.5646008899296E-03
(PID.TID 0000.0001) %MON trAdv_CFL_w_max              =   1.8041572831182E-03
(PID.TID 0000.0001) %MON advcfl_uvel_max              =   1.6483155226077E-03
(PID.TID 0000.0001) %MON advcfl_vvel_max              =   1.5192929704620E-03
(PID.TID 0000.0001) %MON advcfl_wvel_max              =   3.3044244932092E-03
(PID.TID 0000.0001) %MON advcfl_W_hf_max              =   1.9408352857018E-03
(PID.TID 0000.0001) %MON pe_b_mean                    =   5.0655802223584E-04
(PID.TID 0000.0001) %MON ke_max                       =   1.8004316862665E-01
(PID.TID 0000.0001) %MON ke_mean                      =   1.6200549605000E-04
(PID.TID 0000.0001) %MON ke_vol                       =   1.3398120735672E+18
(PID.TID 0000.0001) %MON vort_r_min                   =  -3.5153376126702E-06
(PID.TID 0000.0001) %MON vort_r_max                   =   2.4663428862270E-06
(PID.TID 0000.0001) %MON vort_a_mean                  =  -2.0549865324846E-05
(PID.TID 0000.0001) %MON vort_a_sd                    =   7.5259667272634E-05
(PID.TID 0000.0001) %MON vort_p_mean                  =  -2.4783294893444E-05
(PID.TID 0000.0001) %MON vort_p_sd                    =   1.2811901356815E-04
(PID.TID 0000.0001) %MON surfExpan_theta_mean         =  -6.6677698386840E-06
(PID.TID 0000.0001) %MON surfExpan_salt_mean          =   1.1913392994916E-06
(PID.TID 0000.0001) // =======================================================
(PID.TID 0000.0001) // End MONITOR dynamic field statistics
(PID.TID 0000.0001) // =======================================================
(PID.TID 0000.0001) // =======================================================
(PID.TID 0000.0001) // Begin MONITOR SEAICE statistics
(PID.TID 0000.0001) // =======================================================
(PID.TID 0000.0001) %MON seaice_tsnumber              =                 72051
(PID.TID 0000.0001) %MON seaice_time_sec              =   6.4845900000000E+07
(PID.TID 0000.0001) %MON seaice_uice_max              =   2.3257944816957E-01
(PID.TID 0000.0001) %MON seaice_uice_min              =  -3.1544121257771E-01
(PID.TID 0000.0001) %MON seaice_uice_mean             =  -6.3148688861371E-03
(PID.TID 0000.0001) %MON seaice_uice_sd               =   5.4572634297045E-02
(PID.TID 0000.0001) %MON seaice_uice_del2             =   8.9361947438977E-04
(PID.TID 0000.0001) %MON seaice_vice_max              =   4.3391252463688E-01
(PID.TID 0000.0001) %MON seaice_vice_min              =  -4.8066058872128E-01
(PID.TID 0000.0001) %MON seaice_vice_mean             =  -1.4905960249455E-02
(PID.TID 0000.0001) %MON seaice_vice_sd               =   6.1935058510931E-02
(PID.TID 0000.0001) %MON seaice_vice_del2             =   8.3711793125339E-04
(PID.TID 0000.0001) %MON seaice_area_max              =   1.0000000000000E+00
(PID.TID 0000.0001) %MON seaice_area_min              =   0.0000000000000E+00
(PID.TID 0000.0001) %MON seaice_area_mean             =   6.9122425570513E-02
(PID.TID 0000.0001) %MON seaice_area_sd               =   2.3750089751158E-01
(PID.TID 0000.0001) %MON seaice_area_del2             =   1.7505669394198E-03
(PID.TID 0000.0001) %MON seaice_heff_max              =   8.5324209979241E+00
(PID.TID 0000.0001) %MON seaice_heff_min              =   0.0000000000000E+00
(PID.TID 0000.0001) %MON seaice_heff_mean             =   2.0611270909070E-01
(PID.TID 0000.0001) %MON seaice_heff_sd               =   9.8013784177254E-01
(PID.TID 0000.0001) %MON seaice_heff_del2             =   6.2399895837699E-03
(PID.TID 0000.0001) %MON seaice_hsnow_max             =   2.0318185354145E+00
(PID.TID 0000.0001) %MON seaice_hsnow_min             =   0.0000000000000E+00
(PID.TID 0000.0001) %MON seaice_hsnow_mean            =   2.2744543090384E-02
(PID.TID 0000.0001) %MON seaice_hsnow_sd              =   1.1945293956607E-01
(PID.TID 0000.0001) %MON seaice_hsnow_del2            =   1.4623617403270E-03
(PID.TID 0000.0001) // =======================================================
(PID.TID 0000.0001) // End MONITOR SEAICE statistics
(PID.TID 0000.0001) // =======================================================
 SEAICE_LSR: Residual Initial ipass,Uice,Vice=    1  3.00512459E-03  3.07133484E-03
 SEAICE_LSR (ipass=   1) iters,dU,Resid=     8  5.28099036E-05  5.68329475E-05
 SEAICE_LSR (ipass=   1) iters,dV,Resid=     8  1.40493561E-06  9.40199199E-06
 SEAICE_LSR: Residual Initial ipass,Uice,Vice=    2  1.84156590E-03  2.43829861E-03
 SEAICE_LSR (ipass=   2) iters,dU,Resid=     6  6.07542751E-05  6.64843729E-05
 SEAICE_LSR (ipass=   2) iters,dV,Resid=     6  3.87027129E-06  9.89304644E-06
 cg2d: Sum(rhs),rhsMax =  -3.57840870840407E+01  6.48248041552670E+01
(PID.TID 0000.0001)      cg2d_init_res =   1.45130744043569E-01
(PID.TID 0000.0001)      cg2d_iters(min,last) =      -1      10
(PID.TID 0000.0001)      cg2d_last_res =   7.78977169555164E-08
(PID.TID 0000.0001) // =======================================================
(PID.TID 0000.0001) // Begin MONITOR dynamic field statistics
(PID.TID 0000.0001) // =======================================================
(PID.TID 0000.0001) %MON time_tsnumber                =                 72052
(PID.TID 0000.0001) %MON time_secondsf                =   6.4846800000000E+07
(PID.TID 0000.0001) %MON dynstat_eta_max              =   2.8871904547426E+00
(PID.TID 0000.0001) %MON dynstat_eta_min              =  -1.5951796179707E+00
(PID.TID 0000.0001) %MON dynstat_eta_mean             =   2.6954565075349E-02
(PID.TID 0000.0001) %MON dynstat_eta_sd               =   6.1561301404179E-01
(PID.TID 0000.0001) %MON dynstat_eta_del2             =   2.3305673030938E-03
(PID.TID 0000.0001) %MON dynstat_uvel_max             =   2.9777112355291E-01
(PID.TID 0000.0001) %MON dynstat_uvel_min             =  -5.8787167432865E-01
(PID.TID 0000.0001) %MON dynstat_uvel_mean            =  -5.0176004074350E-04
(PID.TID 0000.0001) %MON dynstat_uvel_sd              =   1.2682576462589E-02
(PID.TID 0000.0001) %MON dynstat_uvel_del2            =   9.3009453792704E-05
(PID.TID 0000.0001) %MON dynstat_vvel_max             =   4.8846057459963E-01
(PID.TID 0000.0001) %MON dynstat_vvel_min             =  -5.4550444759089E-01
(PID.TID 0000.0001) %MON dynstat_vvel_mean            =   3.3901438386747E-04
(PID.TID 0000.0001) %MON dynstat_vvel_sd              =   1.3802468085129E-02
(PID.TID 0000.0001) %MON dynstat_vvel_del2            =   8.6899845082704E-05
(PID.TID 0000.0001) %MON dynstat_wvel_max             =   1.4736280962761E-04
(PID.TID 0000.0001) %MON dynstat_wvel_min             =  -1.9105970541582E-04
(PID.TID 0000.0001) %MON dynstat_wvel_mean            =  -2.7657378150053E-07
(PID.TID 0000.0001) %MON dynstat_wvel_sd              =   7.9807051252391E-06
(PID.TID 0000.0001) %MON dynstat_wvel_del2            =   7.7661160524992E-08
(PID.TID 0000.0001) %MON dynstat_theta_max            =   3.0924988835168E+01
(PID.TID 0000.0001) %MON dynstat_theta_min            =  -3.0048027937663E+00
(PID.TID 0000.0001) %MON dynstat_theta_mean           =   3.9091402088722E+00
(PID.TID 0000.0001) %MON dynstat_theta_sd             =   4.5714322230162E+00
(PID.TID 0000.0001) %MON dynstat_theta_del2           =   2.6427735594546E-03
(PID.TID 0000.0001) %MON dynstat_salt_max             =   4.1350213627748E+01
(PID.TID 0000.0001) %MON dynstat_salt_min             =   1.8518898557822E+01
(PID.TID 0000.0001) %MON dynstat_salt_mean            =   3.4771962900054E+01
(PID.TID 0000.0001) %MON dynstat_salt_sd              =   5.3183686851393E-01
(PID.TID 0000.0001) %MON dynstat_salt_del2            =   1.0332160631619E-03
(PID.TID 0000.0001) %MON dynstat_sst_max              =   3.0924988835168E+01
(PID.TID 0000.0001) %MON dynstat_sst_min              =  -1.9364033456413E+00
(PID.TID 0000.0001) %MON dynstat_sst_mean             =   1.8107607148222E+01
(PID.TID 0000.0001) %MON dynstat_sst_sd               =   9.8111147595751E+00
(PID.TID 0000.0001) %MON dynstat_sst_del2             =   1.5047724224976E-02
(PID.TID 0000.0001) %MON dynstat_sss_max              =   4.1350213627748E+01
(PID.TID 0000.0001) %MON dynstat_sss_min              =   1.8751792201278E+01
(PID.TID 0000.0001) %MON dynstat_sss_mean             =   3.4625166040402E+01
(PID.TID 0000.0001) %MON dynstat_sss_sd               =   1.4795221898515E+00
(PID.TID 0000.0001) %MON dynstat_sss_del2             =   1.1443489590997E-02
(PID.TID 0000.0001) %MON forcing_qnet_max             =   2.1422111816406E+03
(PID.TID 0000.0001) %MON forcing_qnet_min             =  -2.7624011230469E+03
(PID.TID 0000.0001) %MON forcing_qnet_mean            =   1.7115356514484E+01
(PID.TID 0000.0001) %MON forcing_qnet_sd              =   1.9858955545339E+02
(PID.TID 0000.0001) %MON forcing_qnet_del2            =   4.4114617115981E+00
(PID.TID 0000.0001) %MON forcing_qsw_max              =   0.0000000000000E+00
(PID.TID 0000.0001) %MON forcing_qsw_min              =  -1.0241876462516E+02
(PID.TID 0000.0001) %MON forcing_qsw_mean             =  -1.3321448415090E+01
(PID.TID 0000.0001) %MON forcing_qsw_sd               =   2.2975730824243E+01
(PID.TID 0000.0001) %MON forcing_qsw_del2             =   1.3919394891483E-01
(PID.TID 0000.0001) %MON forcing_empmr_max            =   6.5404041670263E-03
(PID.TID 0000.0001) %MON forcing_empmr_min            =  -9.4022996723652E-02
(PID.TID 0000.0001) %MON forcing_empmr_mean           =  -2.8374089518710E-04
(PID.TID 0000.0001) %MON forcing_empmr_sd             =   4.1493399968457E-03
(PID.TID 0000.0001) %MON forcing_empmr_del2           =   1.6432228434722E-04
(PID.TID 0000.0001) %MON forcing_fu_max               =   3.8578424971719E-01
(PID.TID 0000.0001) %MON forcing_fu_min               =  -3.5837667966864E-01
(PID.TID 0000.0001) %MON forcing_fu_mean              =  -3.1751038950838E-03
(PID.TID 0000.0001) %MON forcing_fu_sd                =   6.2258209014733E-02
(PID.TID 0000.0001) %MON forcing_fu_del2              =   6.1885714821589E-04
(PID.TID 0000.0001) %MON forcing_fv_max               =   3.2478227890617E-01
(PID.TID 0000.0001) %MON forcing_fv_min               =  -2.9195410498829E-01
(PID.TID 0000.0001) %MON forcing_fv_mean              =  -1.4892941903774E-02
(PID.TID 0000.0001) %MON forcing_fv_sd                =   6.3226048709711E-02
(PID.TID 0000.0001) %MON forcing_fv_del2              =   5.4295553278128E-04
(PID.TID 0000.0001) %MON trAdv_CFL_u_max              =   1.7094688115944E-03
(PID.TID 0000.0001) %MON trAdv_CFL_v_max              =   1.6332131957212E-03
(PID.TID 0000.0001) %MON trAdv_CFL_w_max              =   1.8391683066166E-03
(PID.TID 0000.0001) %MON advcfl_uvel_max              =   1.7083604671973E-03
(PID.TID 0000.0001) %MON advcfl_vvel_max              =   1.5948947542676E-03
(PID.TID 0000.0001) %MON advcfl_wvel_max              =   3.2703651034314E-03
(PID.TID 0000.0001) %MON advcfl_W_hf_max              =   1.8946697078272E-03
(PID.TID 0000.0001) %MON pe_b_mean                    =   5.0583479989878E-04
(PID.TID 0000.0001) %MON ke_max                       =   1.8987601005698E-01
(PID.TID 0000.0001) %MON ke_mean                      =   1.6244803333544E-04
(PID.TID 0000.0001) %MON ke_vol                       =   1.3398121639893E+18
(PID.TID 0000.0001) %MON vort_r_min                   =  -3.6657331600946E-06
(PID.TID 0000.0001) %MON vort_r_max                   =   2.5102034986438E-06
(PID.TID 0000.0001) %MON vort_a_mean                  =  -2.0549865324846E-05
(PID.TID 0000.0001) %MON vort_a_sd                    =   7.5259677054483E-05
(PID.TID 0000.0001) %MON vort_p_mean                  =  -2.4783292950663E-05
(PID.TID 0000.0001) %MON vort_p_sd                    =   1.2811900145989E-04
(PID.TID 0000.0001) %MON surfExpan_theta_mean         =  -6.7758343827241E-06
(PID.TID 0000.0001) %MON surfExpan_salt_mean          =   1.2203104282642E-06
(PID.TID 0000.0001) // =======================================================
(PID.TID 0000.0001) // End MONITOR dynamic field statistics
(PID.TID 0000.0001) // =======================================================
(PID.TID 0000.0001) // =======================================================
(PID.TID 0000.0001) // Begin MONITOR SEAICE statistics
(PID.TID 0000.0001) // =======================================================
(PID.TID 0000.0001) %MON seaice_tsnumber              =                 72052
(PID.TID 0000.0001) %MON seaice_time_sec              =   6.4846800000000E+07
(PID.TID 0000.0001) %MON seaice_uice_max              =   2.3039624156878E-01
(PID.TID 0000.0001) %MON seaice_uice_min              =  -3.4320621655876E-01
(PID.TID 0000.0001) %MON seaice_uice_mean             =  -6.1547923589461E-03
(PID.TID 0000.0001) %MON seaice_uice_sd               =   5.4561595128904E-02
(PID.TID 0000.0001) %MON seaice_uice_del2             =   8.9386231208501E-04
(PID.TID 0000.0001) %MON seaice_vice_max              =   4.7044591557627E-01
(PID.TID 0000.0001) %MON seaice_vice_min              =  -5.0567990718161E-01
(PID.TID 0000.0001) %MON seaice_vice_mean             =  -1.4896192875873E-02
(PID.TID 0000.0001) %MON seaice_vice_sd               =   6.2328260399584E-02
(PID.TID 0000.0001) %MON seaice_vice_del2             =   8.4151872501693E-04
(PID.TID 0000.0001) %MON seaice_area_max              =   1.0000000000000E+00
(PID.TID 0000.0001) %MON seaice_area_min              =   0.0000000000000E+00
(PID.TID 0000.0001) %MON seaice_area_mean             =   6.9116745861076E-02
(PID.TID 0000.0001) %MON seaice_area_sd               =   2.3748549505107E-01
(PID.TID 0000.0001) %MON seaice_area_del2             =   1.7496849057295E-03
(PID.TID 0000.0001) %MON seaice_heff_max              =   8.5332842517831E+00
(PID.TID 0000.0001) %MON seaice_heff_min              =   0.0000000000000E+00
(PID.TID 0000.0001) %MON seaice_heff_mean             =   2.0610855119627E-01
(PID.TID 0000.0001) %MON seaice_heff_sd               =   9.8015179099651E-01
(PID.TID 0000.0001) %MON seaice_heff_del2             =   6.2399420674911E-03
(PID.TID 0000.0001) %MON seaice_hsnow_max             =   2.0318156848795E+00
(PID.TID 0000.0001) %MON seaice_hsnow_min             =   0.0000000000000E+00
(PID.TID 0000.0001) %MON seaice_hsnow_mean            =   2.2743815834666E-02
(PID.TID 0000.0001) %MON seaice_hsnow_sd              =   1.1944932095219E-01
(PID.TID 0000.0001) %MON seaice_hsnow_del2            =   1.4622733445402E-03
(PID.TID 0000.0001) // =======================================================
(PID.TID 0000.0001) // End MONITOR SEAICE statistics
(PID.TID 0000.0001) // =======================================================
 Compute Stats, Diag. #    211  SIarea    vol(   0 ): 1.456E+15  Parms: SM      M1      
 Compute Stats, Diag. #    214  SIheff    vol(   0 ): 1.456E+15  Parms: SM      M1      
 Compute Stats, Diag. #    216  SIhsnow   vol(   0 ): 1.456E+15  Parms: SM      M1      
 Compute Stats, Diag. #     83  sIceLoad  vol(   0 ): 1.456E+15  Parms: SM      U1      
 Compute Stats, Diag. #    220  SIuice    vol(   0 ): 1.383E+15  Parms: UU      M1      
 Compute Stats, Diag. #    221  SIvice    vol(   0 ): 1.391E+15  Parms: VV      M1      
 Compute Stats, Diag. #    222  SItaux    vol(   0 ): 1.383E+15  Parms: UU      U1      
 Compute Stats, Diag. #    223  SItauy    vol(   0 ): 1.391E+15  Parms: VV      U1      
 SEAICE_LSR: Residual Initial ipass,Uice,Vice=    1  2.98370525E-03  2.85080025E-03
 SEAICE_LSR (ipass=   1) iters,dU,Resid=     8  5.11310633E-05  5.48097256E-05
 SEAICE_LSR (ipass=   1) iters,dV,Resid=     8  1.27364625E-06  9.68969636E-06
 SEAICE_LSR: Residual Initial ipass,Uice,Vice=    2  1.79735070E-03  2.27248984E-03
 SEAICE_LSR (ipass=   2) iters,dU,Resid=     6  5.89260636E-05  6.48050598E-05
 SEAICE_LSR (ipass=   2) iters,dV,Resid=     6  2.52624010E-06  1.02864449E-05
 cg2d: Sum(rhs),rhsMax =  -3.71722701693017E+01  6.29718774771492E+01
(PID.TID 0000.0001)      cg2d_init_res =   1.53575070474969E-01
(PID.TID 0000.0001)      cg2d_iters(min,last) =      -1      10
(PID.TID 0000.0001)      cg2d_last_res =   7.87396314284881E-08
(PID.TID 0000.0001) // =======================================================
(PID.TID 0000.0001) // Begin MONITOR dynamic field statistics
(PID.TID 0000.0001) // =======================================================
(PID.TID 0000.0001) %MON time_tsnumber                =                 72053
(PID.TID 0000.0001) %MON time_secondsf                =   6.4847700000000E+07
(PID.TID 0000.0001) %MON dynstat_eta_max              =   2.8047296263870E+00
(PID.TID 0000.0001) %MON dynstat_eta_min              =  -1.5935715765804E+00
(PID.TID 0000.0001) %MON dynstat_eta_mean             =   2.7199874485122E-02
(PID.TID 0000.0001) %MON dynstat_eta_sd               =   6.1512529550483E-01
(PID.TID 0000.0001) %MON dynstat_eta_del2             =   2.2483738055749E-03
(PID.TID 0000.0001) %MON dynstat_uvel_max             =   3.4856872759167E-01
(PID.TID 0000.0001) %MON dynstat_uvel_min             =  -6.0896622893651E-01
(PID.TID 0000.0001) %MON dynstat_uvel_mean            =  -4.8872854513080E-04
(PID.TID 0000.0001) %MON dynstat_uvel_sd              =   1.2695103456557E-02
(PID.TID 0000.0001) %MON dynstat_uvel_del2            =   9.4059782063477E-05
(PID.TID 0000.0001) %MON dynstat_vvel_max             =   5.3506661076104E-01
(PID.TID 0000.0001) %MON dynstat_vvel_min             =  -5.6920776124313E-01
(PID.TID 0000.0001) %MON dynstat_vvel_mean            =   3.7437445485893E-04
(PID.TID 0000.0001) %MON dynstat_vvel_sd              =   1.3831905578054E-02
(PID.TID 0000.0001) %MON dynstat_vvel_del2            =   8.8338816185781E-05
(PID.TID 0000.0001) %MON dynstat_wvel_max             =   1.4399788375108E-04
(PID.TID 0000.0001) %MON dynstat_wvel_min             =  -1.9082408826669E-04
(PID.TID 0000.0001) %MON dynstat_wvel_mean            =  -2.9422316887300E-07
(PID.TID 0000.0001) %MON dynstat_wvel_sd              =   8.0137742507897E-06
(PID.TID 0000.0001) %MON dynstat_wvel_del2            =   7.7922102842651E-08
(PID.TID 0000.0001) %MON dynstat_theta_max            =   3.0924960403599E+01
(PID.TID 0000.0001) %MON dynstat_theta_min            =  -3.0050098327144E+00
(PID.TID 0000.0001) %MON dynstat_theta_mean           =   3.9091410167800E+00
(PID.TID 0000.0001) %MON dynstat_theta_sd             =   4.5714347387504E+00
(PID.TID 0000.0001) %MON dynstat_theta_del2           =   2.6426215467076E-03
(PID.TID 0000.0001) %MON dynstat_salt_max             =   4.1349911551685E+01
(PID.TID 0000.0001) %MON dynstat_salt_min             =   1.8518908880217E+01
(PID.TID 0000.0001) %MON dynstat_salt_mean            =   3.4771960337348E+01
(PID.TID 0000.0001) %MON dynstat_salt_sd              =   5.3185296184179E-01
(PID.TID 0000.0001) %MON dynstat_salt_del2            =   1.0373053738409E-03
(PID.TID 0000.0001) %MON dynstat_sst_max              =   3.0924960403599E+01
(PID.TID 0000.0001) %MON dynstat_sst_min              =  -1.9361308060879E+00
(PID.TID 0000.0001) %MON dynstat_sst_mean             =   1.8107571620056E+01
(PID.TID 0000.0001) %MON dynstat_sst_sd               =   9.8111824873323E+00
(PID.TID 0000.0001) %MON dynstat_sst_del2             =   1.5044913645553E-02
(PID.TID 0000.0001) %MON dynstat_sss_max              =   4.1349911551685E+01
(PID.TID 0000.0001) %MON dynstat_sss_min              =   1.8751825174719E+01
(PID.TID 0000.0001) %MON dynstat_sss_mean             =   3.4624984359779E+01
(PID.TID 0000.0001) %MON dynstat_sss_sd               =   1.4799286684465E+00
(PID.TID 0000.0001) %MON dynstat_sss_del2             =   1.1501746459454E-02
(PID.TID 0000.0001) %MON forcing_qnet_max             =   2.1168745117188E+03
(PID.TID 0000.0001) %MON forcing_qnet_min             =  -1.7267106933594E+03
(PID.TID 0000.0001) %MON forcing_qnet_mean            =   1.3601253587133E+01
(PID.TID 0000.0001) %MON forcing_qnet_sd              =   1.9814687900881E+02
(PID.TID 0000.0001) %MON forcing_qnet_del2            =   4.1049446554774E+00
(PID.TID 0000.0001) %MON forcing_qsw_max              =   0.0000000000000E+00
(PID.TID 0000.0001) %MON forcing_qsw_min              =  -9.7249130657252E+01
(PID.TID 0000.0001) %MON forcing_qsw_mean             =  -1.3649263681801E+01
(PID.TID 0000.0001) %MON forcing_qsw_sd               =   2.3022551227595E+01
(PID.TID 0000.0001) %MON forcing_qsw_del2             =   1.3899144348747E-01
(PID.TID 0000.0001) %MON forcing_empmr_max            =   6.4729973673820E-03
(PID.TID 0000.0001) %MON forcing_empmr_min            =  -9.3054689466953E-02
(PID.TID 0000.0001) %MON forcing_empmr_mean           =  -2.8210582123945E-04
(PID.TID 0000.0001) %MON forcing_empmr_sd             =   4.1114322989652E-03
(PID.TID 0000.0001) %MON forcing_empmr_del2           =   1.6278071860213E-04
(PID.TID 0000.0001) %MON forcing_fu_max               =   3.8876900149431E-01
(PID.TID 0000.0001) %MON forcing_fu_min               =  -3.5540857013450E-01
(PID.TID 0000.0001) %MON forcing_fu_mean              =  -3.1294420154071E-03
(PID.TID 0000.0001) %MON forcing_fu_sd                =   6.2289275255236E-02
(PID.TID 0000.0001) %MON forcing_fu_del2              =   6.1873445538897E-04
(PID.TID 0000.0001) %MON forcing_fv_max               =   3.2369615110360E-01
(PID.TID 0000.0001) %MON forcing_fv_min               =  -2.9099976326631E-01
(PID.TID 0000.0001) %MON forcing_fv_mean              =  -1.4928642224411E-02
(PID.TID 0000.0001) %MON forcing_fv_sd                =   6.3083835837230E-02
(PID.TID 0000.0001) %MON forcing_fv_del2              =   5.4219868626456E-04
(PID.TID 0000.0001) %MON trAdv_CFL_u_max              =   1.7709147291399E-03
(PID.TID 0000.0001) %MON trAdv_CFL_v_max              =   1.7631837625457E-03
(PID.TID 0000.0001) %MON trAdv_CFL_w_max              =   1.8661920319826E-03
(PID.TID 0000.0001) %MON advcfl_uvel_max              =   1.7696614359953E-03
(PID.TID 0000.0001) %MON advcfl_vvel_max              =   1.7461175272918E-03
(PID.TID 0000.0001) %MON advcfl_wvel_max              =   3.2366848510245E-03
(PID.TID 0000.0001) %MON advcfl_W_hf_max              =   1.8661920319826E-03
(PID.TID 0000.0001) %MON pe_b_mean                    =   5.0505282015734E-04
(PID.TID 0000.0001) %MON ke_max                       =   1.9936456854556E-01
(PID.TID 0000.0001) %MON ke_mean                      =   1.6297733307591E-04
(PID.TID 0000.0001) %MON ke_vol                       =   1.3398122537715E+18
(PID.TID 0000.0001) %MON vort_r_min                   =  -3.8105830191315E-06
(PID.TID 0000.0001) %MON vort_r_max                   =   2.5433440473732E-06
(PID.TID 0000.0001) %MON vort_a_mean                  =  -2.0549865324846E-05
(PID.TID 0000.0001) %MON vort_a_sd                    =   7.5259686208998E-05
(PID.TID 0000.0001) %MON vort_p_mean                  =  -2.4783290960939E-05
(PID.TID 0000.0001) %MON vort_p_sd                    =   1.2811899235273E-04
(PID.TID 0000.0001) %MON surfExpan_theta_mean         =  -6.8816926078935E-06
(PID.TID 0000.0001) %MON surfExpan_salt_mean          =   1.2467245302826E-06
(PID.TID 0000.0001) // =======================================================
(PID.TID 0000.0001) // End MONITOR dynamic field statistics
(PID.TID 0000.0001) // =======================================================
(PID.TID 0000.0001) // =======================================================
(PID.TID 0000.0001) // Begin MONITOR SEAICE statistics
(PID.TID 0000.0001) // =======================================================
(PID.TID 0000.0001) %MON seaice_tsnumber              =                 72053
(PID.TID 0000.0001) %MON seaice_time_sec              =   6.4847700000000E+07
(PID.TID 0000.0001) %MON seaice_uice_max              =   2.2798317957561E-01
(PID.TID 0000.0001) %MON seaice_uice_min              =  -3.7092905862883E-01
(PID.TID 0000.0001) %MON seaice_uice_mean             =  -5.9867519796289E-03
(PID.TID 0000.0001) %MON seaice_uice_sd               =   5.4666456212001E-02
(PID.TID 0000.0001) %MON seaice_uice_del2             =   8.9836604343502E-04
(PID.TID 0000.0001) %MON seaice_vice_max              =   4.9987038165107E-01
(PID.TID 0000.0001) %MON seaice_vice_min              =  -5.2880179980022E-01
(PID.TID 0000.0001) %MON seaice_vice_mean             =  -1.4887327159805E-02
(PID.TID 0000.0001) %MON seaice_vice_sd               =   6.2726471154099E-02
(PID.TID 0000.0001) %MON seaice_vice_del2             =   8.5141413146881E-04
(PID.TID 0000.0001) %MON seaice_area_max              =   1.0000000000000E+00
(PID.TID 0000.0001) %MON seaice_area_min              =   0.0000000000000E+00
(PID.TID 0000.0001) %MON seaice_area_mean             =   6.9111201235930E-02
(PID.TID 0000.0001) %MON seaice_area_sd               =   2.3747074512628E-01
(PID.TID 0000.0001) %MON seaice_area_del2             =   1.7488012075572E-03
(PID.TID 0000.0001) %MON seaice_heff_max              =   8.5341229044101E+00
(PID.TID 0000.0001) %MON seaice_heff_min              =   0.0000000000000E+00
(PID.TID 0000.0001) %MON seaice_heff_mean             =   2.0610413587123E-01
(PID.TID 0000.0001) %MON seaice_heff_sd               =   9.8016457398914E-01
(PID.TID 0000.0001) %MON seaice_heff_del2             =   6.2398801367159E-03
(PID.TID 0000.0001) %MON seaice_hsnow_max             =   2.0318188982088E+00
(PID.TID 0000.0001) %MON seaice_hsnow_min             =   0.0000000000000E+00
(PID.TID 0000.0001) %MON seaice_hsnow_mean            =   2.2743071144994E-02
(PID.TID 0000.0001) %MON seaice_hsnow_sd              =   1.1944571056138E-01
(PID.TID 0000.0001) %MON seaice_hsnow_del2            =   1.4621852024493E-03
(PID.TID 0000.0001) // =======================================================
(PID.TID 0000.0001) // End MONITOR SEAICE statistics
(PID.TID 0000.0001) // =======================================================
 Computing Diagnostic #    211  SIarea       Counter:       1   Parms: SM      M1      
 Computing Diagnostic #    214  SIheff       Counter:       1   Parms: SM      M1      
 Computing Diagnostic #    216  SIhsnow      Counter:       1   Parms: SM      M1      
 Computing Diagnostic #     83  sIceLoad     Counter:       1   Parms: SM      U1      
 Computing Diagnostic #    220  SIuice       Counter:       1   Parms: UU      M1      
           Vector  Mate for  SIuice       Diagnostic #    221  SIvice   exists 
 Computing Diagnostic #    221  SIvice       Counter:       1   Parms: VV      M1      
           Vector  Mate for  SIvice       Diagnostic #    220  SIuice   exists 
 Computing Diagnostic #    222  SItaux       Counter:       1   Parms: UU      U1      
           Vector  Mate for  SItaux       Diagnostic #    223  SItauy   exists 
 Computing Diagnostic #    223  SItauy       Counter:       1   Parms: VV      U1      
           Vector  Mate for  SItauy       Diagnostic #    222  SItaux   exists 
 Computing Diagnostic #      1  SDIAG1       Counter:       1   Parms: SM      L1      
 Computing Diagnostic #    282  SIareaN      Counter:       1   Parms: SM      MX      
 Computing Diagnostic #    281  SIheffN      Counter:       1   Parms: SM      MX      
 Computing Diagnostic #    283  SIhsnowN     Counter:       1   Parms: SM      MX      
 SEAICE_LSR: Residual Initial ipass,Uice,Vice=    1  3.10786742E-03  2.63201720E-03
 SEAICE_LSR (ipass=   1) iters,dU,Resid=     8  5.52456816E-05  5.91635221E-05
 SEAICE_LSR (ipass=   1) iters,dV,Resid=     8  1.30989500E-06  1.00697642E-05
 SEAICE_LSR: Residual Initial ipass,Uice,Vice=    2  1.84784175E-03  2.04330394E-03
 SEAICE_LSR (ipass=   2) iters,dU,Resid=     6  6.37254122E-05  7.04736045E-05
 SEAICE_LSR (ipass=   2) iters,dV,Resid=     6  3.75481397E-06  1.12541824E-05
 cg2d: Sum(rhs),rhsMax =  -3.88528000046628E+01  6.07905125784899E+01
(PID.TID 0000.0001)      cg2d_init_res =   1.64098227193205E-01
(PID.TID 0000.0001)      cg2d_iters(min,last) =      -1      10
(PID.TID 0000.0001)      cg2d_last_res =   7.95744293192801E-08
(PID.TID 0000.0001) // =======================================================
(PID.TID 0000.0001) // Begin MONITOR dynamic field statistics
(PID.TID 0000.0001) // =======================================================
(PID.TID 0000.0001) %MON time_tsnumber                =                 72054
(PID.TID 0000.0001) %MON time_secondsf                =   6.4848600000000E+07
(PID.TID 0000.0001) %MON dynstat_eta_max              =   2.7076794337336E+00
(PID.TID 0000.0001) %MON dynstat_eta_min              =  -1.5921229547119E+00
(PID.TID 0000.0001) %MON dynstat_eta_mean             =   2.7444751394058E-02
(PID.TID 0000.0001) %MON dynstat_eta_sd               =   6.1461662814483E-01
(PID.TID 0000.0001) %MON dynstat_eta_del2             =   2.1528837123598E-03
(PID.TID 0000.0001) %MON dynstat_uvel_max             =   4.3163871763065E-01
(PID.TID 0000.0001) %MON dynstat_uvel_min             =  -6.3034912079163E-01
(PID.TID 0000.0001) %MON dynstat_uvel_mean            =  -4.7387160700232E-04
(PID.TID 0000.0001) %MON dynstat_uvel_sd              =   1.2716181334836E-02
(PID.TID 0000.0001) %MON dynstat_uvel_del2            =   9.5044727010150E-05
(PID.TID 0000.0001) %MON dynstat_vvel_max             =   5.9284974727536E-01
(PID.TID 0000.0001) %MON dynstat_vvel_min             =  -5.9051377778120E-01
(PID.TID 0000.0001) %MON dynstat_vvel_mean            =   4.0641093225741E-04
(PID.TID 0000.0001) %MON dynstat_vvel_sd              =   1.3857906145715E-02
(PID.TID 0000.0001) %MON dynstat_vvel_del2            =   9.0217193834689E-05
(PID.TID 0000.0001) %MON dynstat_wvel_max             =   1.4072458927886E-04
(PID.TID 0000.0001) %MON dynstat_wvel_min             =  -1.9062166953652E-04
(PID.TID 0000.0001) %MON dynstat_wvel_mean            =  -3.0884942483426E-07
(PID.TID 0000.0001) %MON dynstat_wvel_sd              =   8.0427680877397E-06
(PID.TID 0000.0001) %MON dynstat_wvel_del2            =   7.8075667878529E-08
(PID.TID 0000.0001) %MON dynstat_theta_max            =   3.0924924654030E+01
(PID.TID 0000.0001) %MON dynstat_theta_min            =  -3.0052337043275E+00
(PID.TID 0000.0001) %MON dynstat_theta_mean           =   3.9091418750941E+00
(PID.TID 0000.0001) %MON dynstat_theta_sd             =   4.5714373834972E+00
(PID.TID 0000.0001) %MON dynstat_theta_del2           =   2.6424694384768E-03
(PID.TID 0000.0001) %MON dynstat_salt_max             =   4.1349624346639E+01
(PID.TID 0000.0001) %MON dynstat_salt_min             =   1.8518919192799E+01
(PID.TID 0000.0001) %MON dynstat_salt_mean            =   3.4771957805730E+01
(PID.TID 0000.0001) %MON dynstat_salt_sd              =   5.3186884132012E-01
(PID.TID 0000.0001) %MON dynstat_salt_del2            =   1.0413240199700E-03
(PID.TID 0000.0001) %MON dynstat_sst_max              =   3.0924924654030E+01
(PID.TID 0000.0001) %MON dynstat_sst_min              =  -1.9358447857577E+00
(PID.TID 0000.0001) %MON dynstat_sst_mean             =   1.8107538847032E+01
(PID.TID 0000.0001) %MON dynstat_sst_sd               =   9.8112494064859E+00
(PID.TID 0000.0001) %MON dynstat_sst_del2             =   1.5042087298523E-02
(PID.TID 0000.0001) %MON dynstat_sss_max              =   4.1349624346639E+01
(PID.TID 0000.0001) %MON dynstat_sss_min              =   1.8751856234572E+01
(PID.TID 0000.0001) %MON dynstat_sss_mean             =   3.4624804008785E+01
(PID.TID 0000.0001) %MON dynstat_sss_sd               =   1.4803300018199E+00
(PID.TID 0000.0001) %MON dynstat_sss_del2             =   1.1558940627414E-02
(PID.TID 0000.0001) %MON forcing_qnet_max             =   2.0929670410156E+03
(PID.TID 0000.0001) %MON forcing_qnet_min             =  -1.2805056152344E+03
(PID.TID 0000.0001) %MON forcing_qnet_mean            =   1.2520542871103E+01
(PID.TID 0000.0001) %MON forcing_qnet_sd              =   1.9909911320865E+02
(PID.TID 0000.0001) %MON forcing_qnet_del2            =   4.0760179846032E+00
(PID.TID 0000.0001) %MON forcing_qsw_max              =   0.0000000000000E+00
(PID.TID 0000.0001) %MON forcing_qsw_min              =  -9.8598282629735E+01
(PID.TID 0000.0001) %MON forcing_qsw_mean             =  -1.3797563297551E+01
(PID.TID 0000.0001) %MON forcing_qsw_sd               =   2.3125423642558E+01
(PID.TID 0000.0001) %MON forcing_qsw_del2             =   1.3936304956464E-01
(PID.TID 0000.0001) %MON forcing_empmr_max            =   6.4062797464430E-03
(PID.TID 0000.0001) %MON forcing_empmr_min            =  -9.2096447944641E-02
(PID.TID 0000.0001) %MON forcing_empmr_mean           =  -2.8160844527588E-04
(PID.TID 0000.0001) %MON forcing_empmr_sd             =   4.0794801230372E-03
(PID.TID 0000.0001) %MON forcing_empmr_del2           =   1.6143841902552E-04
(PID.TID 0000.0001) %MON forcing_fu_max               =   3.8934313711393E-01
(PID.TID 0000.0001) %MON forcing_fu_min               =  -3.5177259107473E-01
(PID.TID 0000.0001) %MON forcing_fu_mean              =  -3.0955702660178E-03
(PID.TID 0000.0001) %MON forcing_fu_sd                =   6.2302847676225E-02
(PID.TID 0000.0001) %MON forcing_fu_del2              =   6.1878042975130E-04
(PID.TID 0000.0001) %MON forcing_fv_max               =   3.2190615004752E-01
(PID.TID 0000.0001) %MON forcing_fv_min               =  -2.8976341466327E-01
(PID.TID 0000.0001) %MON forcing_fv_mean              =  -1.4954396582381E-02
(PID.TID 0000.0001) %MON forcing_fv_sd                =   6.2941950677038E-02
(PID.TID 0000.0001) %MON forcing_fv_del2              =   5.4146852029856E-04
(PID.TID 0000.0001) %MON trAdv_CFL_u_max              =   1.8332858482264E-03
(PID.TID 0000.0001) %MON trAdv_CFL_v_max              =   1.9559436126081E-03
(PID.TID 0000.0001) %MON trAdv_CFL_w_max              =   1.8852445769362E-03
(PID.TID 0000.0001) %MON advcfl_uvel_max              =   1.8318003154733E-03
(PID.TID 0000.0001) %MON advcfl_vvel_max              =   1.9346849793069E-03
(PID.TID 0000.0001) %MON advcfl_wvel_max              =   3.2033547111180E-03
(PID.TID 0000.0001) %MON advcfl_W_hf_max              =   1.8852445769362E-03
(PID.TID 0000.0001) %MON pe_b_mean                    =   5.0423729778018E-04
(PID.TID 0000.0001) %MON ke_max                       =   2.0851568330107E-01
(PID.TID 0000.0001) %MON ke_mean                      =   1.6356251175548E-04
(PID.TID 0000.0001) %MON ke_vol                       =   1.3398123430363E+18
(PID.TID 0000.0001) %MON vort_r_min                   =  -3.9486389069741E-06
(PID.TID 0000.0001) %MON vort_r_max                   =   2.5664580095576E-06
(PID.TID 0000.0001) %MON vort_a_mean                  =  -2.0549865324846E-05
(PID.TID 0000.0001) %MON vort_a_sd                    =   7.5259694702875E-05
(PID.TID 0000.0001) %MON vort_p_mean                  =  -2.4783288929822E-05
(PID.TID 0000.0001) %MON vort_p_sd                    =   1.2811898659989E-04
(PID.TID 0000.0001) %MON surfExpan_theta_mean         =  -6.9877038140445E-06
(PID.TID 0000.0001) %MON surfExpan_salt_mean          =   1.2693831503994E-06
(PID.TID 0000.0001) // =======================================================
(PID.TID 0000.0001) // End MONITOR dynamic field statistics
(PID.TID 0000.0001) // =======================================================
(PID.TID 0000.0001) // =======================================================
(PID.TID 0000.0001) // Begin MONITOR SEAICE statistics
(PID.TID 0000.0001) // =======================================================
(PID.TID 0000.0001) %MON seaice_tsnumber              =                 72054
(PID.TID 0000.0001) %MON seaice_time_sec              =   6.4848600000000E+07
(PID.TID 0000.0001) %MON seaice_uice_max              =   2.9440202423457E-01
(PID.TID 0000.0001) %MON seaice_uice_min              =  -3.9863949649884E-01
(PID.TID 0000.0001) %MON seaice_uice_mean             =  -5.7998598308129E-03
(PID.TID 0000.0001) %MON seaice_uice_sd               =   5.4898283522399E-02
(PID.TID 0000.0001) %MON seaice_uice_del2             =   9.0758526699529E-04
(PID.TID 0000.0001) %MON seaice_vice_max              =   5.3439223504657E-01
(PID.TID 0000.0001) %MON seaice_vice_min              =  -5.4960581975168E-01
(PID.TID 0000.0001) %MON seaice_vice_mean             =  -1.4862573750049E-02
(PID.TID 0000.0001) %MON seaice_vice_sd               =   6.3093254474944E-02
(PID.TID 0000.0001) %MON seaice_vice_del2             =   8.6658225285924E-04
(PID.TID 0000.0001) %MON seaice_area_max              =   1.0000000000000E+00
(PID.TID 0000.0001) %MON seaice_area_min              =   0.0000000000000E+00
(PID.TID 0000.0001) %MON seaice_area_mean             =   6.9105711058898E-02
(PID.TID 0000.0001) %MON seaice_area_sd               =   2.3745631759186E-01
(PID.TID 0000.0001) %MON seaice_area_del2             =   1.7479234769087E-03
(PID.TID 0000.0001) %MON seaice_heff_max              =   8.5349369196219E+00
(PID.TID 0000.0001) %MON seaice_heff_min              =   0.0000000000000E+00
(PID.TID 0000.0001) %MON seaice_heff_mean             =   2.0609946183311E-01
(PID.TID 0000.0001) %MON seaice_heff_sd               =   9.8017618395499E-01
(PID.TID 0000.0001) %MON seaice_heff_del2             =   6.2398090130562E-03
(PID.TID 0000.0001) %MON seaice_hsnow_max             =   2.0318169179751E+00
(PID.TID 0000.0001) %MON seaice_hsnow_min             =   0.0000000000000E+00
(PID.TID 0000.0001) %MON seaice_hsnow_mean            =   2.2742314647386E-02
(PID.TID 0000.0001) %MON seaice_hsnow_sd              =   1.1944204244000E-01
(PID.TID 0000.0001) %MON seaice_hsnow_del2            =   1.4620978392459E-03
(PID.TID 0000.0001) // =======================================================
(PID.TID 0000.0001) // End MONITOR SEAICE statistics
(PID.TID 0000.0001) // =======================================================
 SEAICE_LSR: Residual Initial ipass,Uice,Vice=    1  3.18859446E-03  2.39213062E-03
 SEAICE_LSR (ipass=   1) iters,dU,Resid=     8  5.59074683E-05  6.04821477E-05
 SEAICE_LSR (ipass=   1) iters,dV,Resid=     8  1.31391085E-06  1.02316069E-05
 SEAICE_LSR: Residual Initial ipass,Uice,Vice=    2  1.90306154E-03  1.82888990E-03
 SEAICE_LSR (ipass=   2) iters,dU,Resid=     6  6.42107632E-05  7.25242318E-05
 SEAICE_LSR (ipass=   2) iters,dV,Resid=     6  4.65419704E-06  1.26136850E-05
 cg2d: Sum(rhs),rhsMax =  -4.08758941273109E+01  5.83007849481984E+01
(PID.TID 0000.0001)      cg2d_init_res =   1.76508448507682E-01
(PID.TID 0000.0001)      cg2d_iters(min,last) =      -1      10
(PID.TID 0000.0001)      cg2d_last_res =   8.01379191387695E-08
(PID.TID 0000.0001) // =======================================================
(PID.TID 0000.0001) // Begin MONITOR dynamic field statistics
(PID.TID 0000.0001) // =======================================================
(PID.TID 0000.0001) %MON time_tsnumber                =                 72055
(PID.TID 0000.0001) %MON time_secondsf                =   6.4849500000000E+07
(PID.TID 0000.0001) %MON dynstat_eta_max              =   2.5969288271539E+00
(PID.TID 0000.0001) %MON dynstat_eta_min              =  -1.5908280861332E+00
(PID.TID 0000.0001) %MON dynstat_eta_mean             =   2.7691267877262E-02
(PID.TID 0000.0001) %MON dynstat_eta_sd               =   6.1410194315334E-01
(PID.TID 0000.0001) %MON dynstat_eta_del2             =   2.0473781553100E-03
(PID.TID 0000.0001) %MON dynstat_uvel_max             =   5.0573993966117E-01
(PID.TID 0000.0001) %MON dynstat_uvel_min             =  -6.5183792707869E-01
(PID.TID 0000.0001) %MON dynstat_uvel_mean            =  -4.5754680257378E-04
(PID.TID 0000.0001) %MON dynstat_uvel_sd              =   1.2744547540920E-02
(PID.TID 0000.0001) %MON dynstat_uvel_del2            =   9.5928011486269E-05
(PID.TID 0000.0001) %MON dynstat_vvel_max             =   6.3854968180105E-01
(PID.TID 0000.0001) %MON dynstat_vvel_min             =  -6.0920846537377E-01
(PID.TID 0000.0001) %MON dynstat_vvel_mean            =   4.3506391253814E-04
(PID.TID 0000.0001) %MON dynstat_vvel_sd              =   1.3879150803927E-02
(PID.TID 0000.0001) %MON dynstat_vvel_del2            =   9.2344589929720E-05
(PID.TID 0000.0001) %MON dynstat_wvel_max             =   1.3740471934435E-04
(PID.TID 0000.0001) %MON dynstat_wvel_min             =  -1.9045596089295E-04
(PID.TID 0000.0001) %MON dynstat_wvel_mean            =  -3.2054037792649E-07
(PID.TID 0000.0001) %MON dynstat_wvel_sd              =   8.0657581558075E-06
(PID.TID 0000.0001) %MON dynstat_wvel_del2            =   7.8126264453876E-08
(PID.TID 0000.0001) %MON dynstat_theta_max            =   3.0924882759653E+01
(PID.TID 0000.0001) %MON dynstat_theta_min            =  -3.0054676835765E+00
(PID.TID 0000.0001) %MON dynstat_theta_mean           =   3.9091427888350E+00
(PID.TID 0000.0001) %MON dynstat_theta_sd             =   4.5714401786698E+00
(PID.TID 0000.0001) %MON dynstat_theta_del2           =   2.6423164089665E-03
(PID.TID 0000.0001) %MON dynstat_salt_max             =   4.1349353255617E+01
(PID.TID 0000.0001) %MON dynstat_salt_min             =   1.8518929497766E+01
(PID.TID 0000.0001) %MON dynstat_salt_mean            =   3.4771955311651E+01
(PID.TID 0000.0001) %MON dynstat_salt_sd              =   5.3188450419303E-01
(PID.TID 0000.0001) %MON dynstat_salt_del2            =   1.0452714906443E-03
(PID.TID 0000.0001) %MON dynstat_sst_max              =   3.0924882759653E+01
(PID.TID 0000.0001) %MON dynstat_sst_min              =  -1.9355451573982E+00
(PID.TID 0000.0001) %MON dynstat_sst_mean             =   1.8107508515922E+01
(PID.TID 0000.0001) %MON dynstat_sst_sd               =   9.8113160728110E+00
(PID.TID 0000.0001) %MON dynstat_sst_del2             =   1.5039230938650E-02
(PID.TID 0000.0001) %MON dynstat_sss_max              =   4.1349353255617E+01
(PID.TID 0000.0001) %MON dynstat_sss_min              =   1.8751885601076E+01
(PID.TID 0000.0001) %MON dynstat_sss_mean             =   3.4624625365993E+01
(PID.TID 0000.0001) %MON dynstat_sss_sd               =   1.4807261142503E+00
(PID.TID 0000.0001) %MON dynstat_sss_del2             =   1.1615064058361E-02
(PID.TID 0000.0001) %MON forcing_qnet_max             =   2.6202560921429E+03
(PID.TID 0000.0001) %MON forcing_qnet_min             =  -1.2623245849609E+03
(PID.TID 0000.0001) %MON forcing_qnet_mean            =   1.1488088363923E+01
(PID.TID 0000.0001) %MON forcing_qnet_sd              =   2.0242138176320E+02
(PID.TID 0000.0001) %MON forcing_qnet_del2            =   4.2403360808212E+00
(PID.TID 0000.0001) %MON forcing_qsw_max              =   0.0000000000000E+00
(PID.TID 0000.0001) %MON forcing_qsw_min              =  -1.0005407367785E+02
(PID.TID 0000.0001) %MON forcing_qsw_mean             =  -1.3908077926306E+01
(PID.TID 0000.0001) %MON forcing_qsw_sd               =   2.3230897967409E+01
(PID.TID 0000.0001) %MON forcing_qsw_del2             =   1.3951412868325E-01
(PID.TID 0000.0001) %MON forcing_empmr_max            =   6.3402503728867E-03
(PID.TID 0000.0001) %MON forcing_empmr_min            =  -9.1147445142269E-02
(PID.TID 0000.0001) %MON forcing_empmr_mean           =  -2.8349395568490E-04
(PID.TID 0000.0001) %MON forcing_empmr_sd             =   4.0736725196733E-03
(PID.TID 0000.0001) %MON forcing_empmr_del2           =   1.6096779494538E-04
(PID.TID 0000.0001) %MON forcing_fu_max               =   3.8892780392590E-01
(PID.TID 0000.0001) %MON forcing_fu_min               =  -3.4685189082882E-01
(PID.TID 0000.0001) %MON forcing_fu_mean              =  -3.1103631981672E-03
(PID.TID 0000.0001) %MON forcing_fu_sd                =   6.2451956085021E-02
(PID.TID 0000.0001) %MON forcing_fu_del2              =   6.2028056956744E-04
(PID.TID 0000.0001) %MON forcing_fv_max               =   3.2105527751920E-01
(PID.TID 0000.0001) %MON forcing_fv_min               =  -2.8844181346612E-01
(PID.TID 0000.0001) %MON forcing_fv_mean              =  -1.4979437023912E-02
(PID.TID 0000.0001) %MON forcing_fv_sd                =   6.2922613000333E-02
(PID.TID 0000.0001) %MON forcing_fv_del2              =   5.4208038756918E-04
(PID.TID 0000.0001) %MON trAdv_CFL_u_max              =   1.8960787388805E-03
(PID.TID 0000.0001) %MON trAdv_CFL_v_max              =   2.1096815726161E-03
(PID.TID 0000.0001) %MON trAdv_CFL_w_max              =   1.8964507352634E-03
(PID.TID 0000.0001) %MON advcfl_uvel_max              =   1.8942469832601E-03
(PID.TID 0000.0001) %MON advcfl_vvel_max              =   2.0838205356405E-03
(PID.TID 0000.0001) %MON advcfl_wvel_max              =   3.1703459179920E-03
(PID.TID 0000.0001) %MON advcfl_W_hf_max              =   1.8964507352634E-03
(PID.TID 0000.0001) %MON pe_b_mean                    =   5.0341289969052E-04
(PID.TID 0000.0001) %MON ke_max                       =   2.1732573420394E-01
(PID.TID 0000.0001) %MON ke_mean                      =   1.6417194722958E-04
(PID.TID 0000.0001) %MON ke_vol                       =   1.3398124321438E+18
(PID.TID 0000.0001) %MON vort_r_min                   =  -4.0786190070082E-06
(PID.TID 0000.0001) %MON vort_r_max                   =   2.5802837840095E-06
(PID.TID 0000.0001) %MON vort_a_mean                  =  -2.0549865324846E-05
(PID.TID 0000.0001) %MON vort_a_sd                    =   7.5259702520398E-05
(PID.TID 0000.0001) %MON vort_p_mean                  =  -2.4783286860454E-05
(PID.TID 0000.0001) %MON vort_p_sd                    =   1.2811898423589E-04
(PID.TID 0000.0001) %MON surfExpan_theta_mean         =  -7.1021702380820E-06
(PID.TID 0000.0001) %MON surfExpan_salt_mean          =   1.2863945677848E-06
(PID.TID 0000.0001) // =======================================================
(PID.TID 0000.0001) // End MONITOR dynamic field statistics
(PID.TID 0000.0001) // =======================================================
(PID.TID 0000.0001) // =======================================================
(PID.TID 0000.0001) // Begin MONITOR SEAICE statistics
(PID.TID 0000.0001) // =======================================================
(PID.TID 0000.0001) %MON seaice_tsnumber              =                 72055
(PID.TID 0000.0001) %MON seaice_time_sec              =   6.4849500000000E+07
(PID.TID 0000.0001) %MON seaice_uice_max              =   3.8055818465718E-01
(PID.TID 0000.0001) %MON seaice_uice_min              =  -4.2624735866149E-01
(PID.TID 0000.0001) %MON seaice_uice_mean             =  -5.6162169027360E-03
(PID.TID 0000.0001) %MON seaice_uice_sd               =   5.5230719897873E-02
(PID.TID 0000.0001) %MON seaice_uice_del2             =   9.1776433227037E-04
(PID.TID 0000.0001) %MON seaice_vice_max              =   5.9400376073331E-01
(PID.TID 0000.0001) %MON seaice_vice_min              =  -5.6744048147206E-01
(PID.TID 0000.0001) %MON seaice_vice_mean             =  -1.4839572520603E-02
(PID.TID 0000.0001) %MON seaice_vice_sd               =   6.3447428535214E-02
(PID.TID 0000.0001) %MON seaice_vice_del2             =   8.8690834511883E-04
(PID.TID 0000.0001) %MON seaice_area_max              =   1.0000000000000E+00
(PID.TID 0000.0001) %MON seaice_area_min              =   0.0000000000000E+00
(PID.TID 0000.0001) %MON seaice_area_mean             =   6.9100285967358E-02
(PID.TID 0000.0001) %MON seaice_area_sd               =   2.3744230287387E-01
(PID.TID 0000.0001) %MON seaice_area_del2             =   1.7470584283192E-03
(PID.TID 0000.0001) %MON seaice_heff_max              =   8.5357275324813E+00
(PID.TID 0000.0001) %MON seaice_heff_min              =   0.0000000000000E+00
(PID.TID 0000.0001) %MON seaice_heff_mean             =   2.0609453761356E-01
(PID.TID 0000.0001) %MON seaice_heff_sd               =   9.8018667098328E-01
(PID.TID 0000.0001) %MON seaice_heff_del2             =   6.2397283705467E-03
(PID.TID 0000.0001) %MON seaice_hsnow_max             =   2.0318216691153E+00
(PID.TID 0000.0001) %MON seaice_hsnow_min             =   0.0000000000000E+00
(PID.TID 0000.0001) %MON seaice_hsnow_mean            =   2.2741555245040E-02
(PID.TID 0000.0001) %MON seaice_hsnow_sd              =   1.1943840326614E-01
(PID.TID 0000.0001) %MON seaice_hsnow_del2            =   1.4620107214270E-03
(PID.TID 0000.0001) // =======================================================
(PID.TID 0000.0001) // End MONITOR SEAICE statistics
(PID.TID 0000.0001) // =======================================================
 SEAICE_LSR: Residual Initial ipass,Uice,Vice=    1  3.32212999E-03  2.23297015E-03
 SEAICE_LSR (ipass=   1) iters,dU,Resid=     8  5.60758707E-05  6.13676537E-05
 SEAICE_LSR (ipass=   1) iters,dV,Resid=     8  1.29635429E-06  1.02643801E-05
 SEAICE_LSR: Residual Initial ipass,Uice,Vice=    2  1.97419789E-03  1.57894174E-03
 SEAICE_LSR (ipass=   2) iters,dU,Resid=     6  6.38247287E-05  7.26720502E-05
 SEAICE_LSR (ipass=   2) iters,dV,Resid=     6  5.58591962E-06  1.43530376E-05
 cg2d: Sum(rhs),rhsMax =  -4.33874435283201E+01  5.55260458714170E+01
(PID.TID 0000.0001)      cg2d_init_res =   2.11878884199465E-01
(PID.TID 0000.0001)      cg2d_iters(min,last) =      -1      10
(PID.TID 0000.0001)      cg2d_last_res =   9.14753817351704E-08
(PID.TID 0000.0001) // =======================================================
(PID.TID 0000.0001) // Begin MONITOR dynamic field statistics
(PID.TID 0000.0001) // =======================================================
(PID.TID 0000.0001) %MON time_tsnumber                =                 72056
(PID.TID 0000.0001) %MON time_secondsf                =   6.4850400000000E+07
(PID.TID 0000.0001) %MON dynstat_eta_max              =   2.4735123297176E+00
(PID.TID 0000.0001) %MON dynstat_eta_min              =  -1.5896522367914E+00
(PID.TID 0000.0001) %MON dynstat_eta_mean             =   2.7993808166499E-02
(PID.TID 0000.0001) %MON dynstat_eta_sd               =   6.1356293007914E-01
(PID.TID 0000.0001) %MON dynstat_eta_del2             =   1.9390241991067E-03
(PID.TID 0000.0001) %MON dynstat_uvel_max             =   5.6982869103319E-01
(PID.TID 0000.0001) %MON dynstat_uvel_min             =  -6.7321420996506E-01
(PID.TID 0000.0001) %MON dynstat_uvel_mean            =  -4.3956976086110E-04
(PID.TID 0000.0001) %MON dynstat_uvel_sd              =   1.2777966301844E-02
(PID.TID 0000.0001) %MON dynstat_uvel_del2            =   9.6685015619790E-05
(PID.TID 0000.0001) %MON dynstat_vvel_max             =   6.7193340507503E-01
(PID.TID 0000.0001) %MON dynstat_vvel_min             =  -6.2509268565959E-01
(PID.TID 0000.0001) %MON dynstat_vvel_mean            =   4.6096752140754E-04
(PID.TID 0000.0001) %MON dynstat_vvel_sd              =   1.3895714535478E-02
(PID.TID 0000.0001) %MON dynstat_vvel_del2            =   9.4540380623261E-05
(PID.TID 0000.0001) %MON dynstat_wvel_max             =   1.3390651095972E-04
(PID.TID 0000.0001) %MON dynstat_wvel_min             =  -3.1933145246644E-04
(PID.TID 0000.0001) %MON dynstat_wvel_mean            =  -3.4154746837981E-07
(PID.TID 0000.0001) %MON dynstat_wvel_sd              =   8.2310386208402E-06
(PID.TID 0000.0001) %MON dynstat_wvel_del2            =   8.1869426376186E-08
(PID.TID 0000.0001) %MON dynstat_theta_max            =   3.0924833533060E+01
(PID.TID 0000.0001) %MON dynstat_theta_min            =  -3.0057055908511E+00
(PID.TID 0000.0001) %MON dynstat_theta_mean           =   3.9091437803391E+00
(PID.TID 0000.0001) %MON dynstat_theta_sd             =   4.5714428732087E+00
(PID.TID 0000.0001) %MON dynstat_theta_del2           =   2.6421529159835E-03
(PID.TID 0000.0001) %MON dynstat_salt_max             =   4.1349099056888E+01
(PID.TID 0000.0001) %MON dynstat_salt_min             =   1.8518939796842E+01
(PID.TID 0000.0001) %MON dynstat_salt_mean            =   3.4771952805676E+01
(PID.TID 0000.0001) %MON dynstat_salt_sd              =   5.3189977828238E-01
(PID.TID 0000.0001) %MON dynstat_salt_del2            =   1.0491516323659E-03
(PID.TID 0000.0001) %MON dynstat_sst_max              =   3.0924833533060E+01
(PID.TID 0000.0001) %MON dynstat_sst_min              =  -1.9352350606421E+00
(PID.TID 0000.0001) %MON dynstat_sst_mean             =   1.8107464871457E+01
(PID.TID 0000.0001) %MON dynstat_sst_sd               =   9.8113798195924E+00
(PID.TID 0000.0001) %MON dynstat_sst_del2             =   1.5036257415561E-02
(PID.TID 0000.0001) %MON dynstat_sss_max              =   4.1349099056888E+01
(PID.TID 0000.0001) %MON dynstat_sss_min              =   1.8751913510101E+01
(PID.TID 0000.0001) %MON dynstat_sss_mean             =   3.4624443319818E+01
(PID.TID 0000.0001) %MON dynstat_sss_sd               =   1.4811108915545E+00
(PID.TID 0000.0001) %MON dynstat_sss_del2             =   1.1670178983699E-02
(PID.TID 0000.0001) %MON forcing_qnet_max             =   1.9064793061271E+04
(PID.TID 0000.0001) %MON forcing_qnet_min             =  -1.2443797607422E+03
(PID.TID 0000.0001) %MON forcing_qnet_mean            =   1.4188410956892E+01
(PID.TID 0000.0001) %MON forcing_qnet_sd              =   3.5275259997785E+02
(PID.TID 0000.0001) %MON forcing_qnet_del2            =   1.1259842955722E+01
(PID.TID 0000.0001) %MON forcing_qsw_max              =   0.0000000000000E+00
(PID.TID 0000.0001) %MON forcing_qsw_min              =  -1.0106529140698E+02
(PID.TID 0000.0001) %MON forcing_qsw_mean             =  -1.3980538640071E+01
(PID.TID 0000.0001) %MON forcing_qsw_sd               =   2.3336544780054E+01
(PID.TID 0000.0001) %MON forcing_qsw_del2             =   1.3943022386902E-01
(PID.TID 0000.0001) %MON forcing_empmr_max            =   6.2749106436968E-03
(PID.TID 0000.0001) %MON forcing_empmr_min            =  -3.3050805330276E-01
(PID.TID 0000.0001) %MON forcing_empmr_mean           =  -3.4792133262160E-04
(PID.TID 0000.0001) %MON forcing_empmr_sd             =   6.4281997704601E-03
(PID.TID 0000.0001) %MON forcing_empmr_del2           =   2.4147185838569E-04
(PID.TID 0000.0001) %MON forcing_fu_max               =   3.8815343783112E-01
(PID.TID 0000.0001) %MON forcing_fu_min               =  -3.4300454109393E-01
(PID.TID 0000.0001) %MON forcing_fu_mean              =  -3.1373213685903E-03
(PID.TID 0000.0001) %MON forcing_fu_sd                =   6.2656900858567E-02
(PID.TID 0000.0001) %MON forcing_fu_del2              =   6.2262497201571E-04
(PID.TID 0000.0001) %MON forcing_fv_max               =   3.2135595231315E-01
(PID.TID 0000.0001) %MON forcing_fv_min               =  -2.8684832620037E-01
(PID.TID 0000.0001) %MON forcing_fv_mean              =  -1.4971596668335E-02
(PID.TID 0000.0001) %MON forcing_fv_sd                =   6.2889755875562E-02
(PID.TID 0000.0001) %MON forcing_fv_del2              =   5.4277240324931E-04
(PID.TID 0000.0001) %MON trAdv_CFL_u_max              =   1.9586850338666E-03
(PID.TID 0000.0001) %MON trAdv_CFL_v_max              =   2.2234813119513E-03
(PID.TID 0000.0001) %MON trAdv_CFL_w_max              =   5.2560474315068E-03
(PID.TID 0000.0001) %MON advcfl_uvel_max              =   1.9563666570144E-03
(PID.TID 0000.0001) %MON advcfl_vvel_max              =   2.1927638020724E-03
(PID.TID 0000.0001) %MON advcfl_wvel_max              =   1.1495932288792E-02
(PID.TID 0000.0001) %MON advcfl_W_hf_max              =   5.2560474315068E-03
(PID.TID 0000.0001) %MON pe_b_mean                    =   5.0255377253146E-04
(PID.TID 0000.0001) %MON ke_max                       =   2.2576580529004E-01
(PID.TID 0000.0001) %MON ke_mean                      =   1.6478063533728E-04
(PID.TID 0000.0001) %MON ke_vol                       =   1.3398125218479E+18
(PID.TID 0000.0001) %MON vort_r_min                   =  -4.1991726961467E-06
(PID.TID 0000.0001) %MON vort_r_max                   =   2.6156222622848E-06
(PID.TID 0000.0001) %MON vort_a_mean                  =  -2.0549865324846E-05
(PID.TID 0000.0001) %MON vort_a_sd                    =   7.5259709781955E-05
(PID.TID 0000.0001) %MON vort_p_mean                  =  -2.4783284751624E-05
(PID.TID 0000.0001) %MON vort_p_sd                    =   1.2811898249117E-04
(PID.TID 0000.0001) %MON surfExpan_theta_mean         =  -7.8166904816366E-06
(PID.TID 0000.0001) %MON surfExpan_salt_mean          =   1.2488808640152E-06
(PID.TID 0000.0001) // =======================================================
(PID.TID 0000.0001) // End MONITOR dynamic field statistics
(PID.TID 0000.0001) // =======================================================
(PID.TID 0000.0001) // =======================================================
(PID.TID 0000.0001) // Begin MONITOR SEAICE statistics
(PID.TID 0000.0001) // =======================================================
(PID.TID 0000.0001) %MON seaice_tsnumber              =                 72056
(PID.TID 0000.0001) %MON seaice_time_sec              =   6.4850400000000E+07
(PID.TID 0000.0001) %MON seaice_uice_max              =   4.5888895732005E-01
(PID.TID 0000.0001) %MON seaice_uice_min              =  -4.5358285085556E-01
(PID.TID 0000.0001) %MON seaice_uice_mean             =  -5.4339641453731E-03
(PID.TID 0000.0001) %MON seaice_uice_sd               =   5.5657523066862E-02
(PID.TID 0000.0001) %MON seaice_uice_del2             =   9.2806049389997E-04
(PID.TID 0000.0001) %MON seaice_vice_max              =   6.4187709799199E-01
(PID.TID 0000.0001) %MON seaice_vice_min              =  -5.8158996455799E-01
(PID.TID 0000.0001) %MON seaice_vice_mean             =  -1.4815488282958E-02
(PID.TID 0000.0001) %MON seaice_vice_sd               =   6.3757472944612E-02
(PID.TID 0000.0001) %MON seaice_vice_del2             =   9.0973704330040E-04
(PID.TID 0000.0001) %MON seaice_area_max              =   1.0000000000000E+00
(PID.TID 0000.0001) %MON seaice_area_min              =   0.0000000000000E+00
(PID.TID 0000.0001) %MON seaice_area_mean             =   6.9094971708515E-02
(PID.TID 0000.0001) %MON seaice_area_sd               =   2.3742889798561E-01
(PID.TID 0000.0001) %MON seaice_area_del2             =   1.7462221577210E-03
(PID.TID 0000.0001) %MON seaice_heff_max              =   8.5364947330340E+00
(PID.TID 0000.0001) %MON seaice_heff_min              =   0.0000000000000E+00
(PID.TID 0000.0001) %MON seaice_heff_mean             =   2.0608938304730E-01
(PID.TID 0000.0001) %MON seaice_heff_sd               =   9.8019609927704E-01
(PID.TID 0000.0001) %MON seaice_heff_del2             =   6.2396361280063E-03
(PID.TID 0000.0001) %MON seaice_hsnow_max             =   2.0318215874897E+00
(PID.TID 0000.0001) %MON seaice_hsnow_min             =   0.0000000000000E+00
(PID.TID 0000.0001) %MON seaice_hsnow_mean            =   2.2740758550779E-02
(PID.TID 0000.0001) %MON seaice_hsnow_sd              =   1.1943468547550E-01
(PID.TID 0000.0001) %MON seaice_hsnow_del2            =   1.4619262726463E-03
(PID.TID 0000.0001) // =======================================================
(PID.TID 0000.0001) // End MONITOR SEAICE statistics
(PID.TID 0000.0001) // =======================================================
 Compute Stats, Diag. #    211  SIarea    vol(   0 ): 1.456E+15  Parms: SM      M1      
 Compute Stats, Diag. #    214  SIheff    vol(   0 ): 1.456E+15  Parms: SM      M1      
 Compute Stats, Diag. #    216  SIhsnow   vol(   0 ): 1.456E+15  Parms: SM      M1      
 Compute Stats, Diag. #     83  sIceLoad  vol(   0 ): 1.456E+15  Parms: SM      U1      
 Compute Stats, Diag. #    220  SIuice    vol(   0 ): 1.383E+15  Parms: UU      M1      
 Compute Stats, Diag. #    221  SIvice    vol(   0 ): 1.391E+15  Parms: VV      M1      
 Compute Stats, Diag. #    222  SItaux    vol(   0 ): 1.383E+15  Parms: UU      U1      
 Compute Stats, Diag. #    223  SItauy    vol(   0 ): 1.391E+15  Parms: VV      U1      
 SEAICE_LSR: Residual Initial ipass,Uice,Vice=    1  3.36463377E-03  2.00282988E-03
 SEAICE_LSR (ipass=   1) iters,dU,Resid=     8  5.29266883E-05  5.72098700E-05
 SEAICE_LSR (ipass=   1) iters,dV,Resid=     8  1.34049480E-06  1.00992541E-05
 SEAICE_LSR: Residual Initial ipass,Uice,Vice=    2  2.09726000E-03  1.40255199E-03
 SEAICE_LSR (ipass=   2) iters,dU,Resid=     6  6.13459998E-05  6.97006983E-05
 SEAICE_LSR (ipass=   2) iters,dV,Resid=     6  6.42392667E-06  1.62385018E-05
 cg2d: Sum(rhs),rhsMax =  -4.64088164466889E+01  5.24926932210671E+01
(PID.TID 0000.0001)      cg2d_init_res =   2.22742620445802E-01
(PID.TID 0000.0001)      cg2d_iters(min,last) =      -1      10
(PID.TID 0000.0001)      cg2d_last_res =   8.97673583176539E-08
(PID.TID 0000.0001) // =======================================================
(PID.TID 0000.0001) // Begin MONITOR dynamic field statistics
(PID.TID 0000.0001) // =======================================================
(PID.TID 0000.0001) %MON time_tsnumber                =                 72057
(PID.TID 0000.0001) %MON time_secondsf                =   6.4851300000000E+07
(PID.TID 0000.0001) %MON dynstat_eta_max              =   2.3386000479830E+00
(PID.TID 0000.0001) %MON dynstat_eta_min              =  -1.5885429546236E+00
(PID.TID 0000.0001) %MON dynstat_eta_mean             =   2.8307435184781E-02
(PID.TID 0000.0001) %MON dynstat_eta_sd               =   6.1306305378886E-01
(PID.TID 0000.0001) %MON dynstat_eta_del2             =   1.8325038879553E-03
(PID.TID 0000.0001) %MON dynstat_uvel_max             =   6.2308913980760E-01
(PID.TID 0000.0001) %MON dynstat_uvel_min             =  -6.9423125614241E-01
(PID.TID 0000.0001) %MON dynstat_uvel_mean            =  -4.2014397267973E-04
(PID.TID 0000.0001) %MON dynstat_uvel_sd              =   1.2815354531407E-02
(PID.TID 0000.0001) %MON dynstat_uvel_del2            =   9.7299702192239E-05
(PID.TID 0000.0001) %MON dynstat_vvel_max             =   6.9299584178258E-01
(PID.TID 0000.0001) %MON dynstat_vvel_min             =  -6.3799909915875E-01
(PID.TID 0000.0001) %MON dynstat_vvel_mean            =   4.8427135808269E-04
(PID.TID 0000.0001) %MON dynstat_vvel_sd              =   1.3907324789006E-02
(PID.TID 0000.0001) %MON dynstat_vvel_del2            =   9.6641551590984E-05
(PID.TID 0000.0001) %MON dynstat_wvel_max             =   1.3011363602760E-04
(PID.TID 0000.0001) %MON dynstat_wvel_min             =  -3.7995844647504E-04
(PID.TID 0000.0001) %MON dynstat_wvel_mean            =  -3.5395974321913E-07
(PID.TID 0000.0001) %MON dynstat_wvel_sd              =   8.3053799541465E-06
(PID.TID 0000.0001) %MON dynstat_wvel_del2            =   8.3059915203199E-08
(PID.TID 0000.0001) %MON dynstat_theta_max            =   3.0924778183449E+01
(PID.TID 0000.0001) %MON dynstat_theta_min            =  -3.0059420791699E+00
(PID.TID 0000.0001) %MON dynstat_theta_mean           =   3.9091449273311E+00
(PID.TID 0000.0001) %MON dynstat_theta_sd             =   4.5714457725254E+00
(PID.TID 0000.0001) %MON dynstat_theta_del2           =   2.6420000230240E-03
(PID.TID 0000.0001) %MON dynstat_salt_max             =   4.1348862640191E+01
(PID.TID 0000.0001) %MON dynstat_salt_min             =   1.8518950091233E+01
(PID.TID 0000.0001) %MON dynstat_salt_mean            =   3.4771950363502E+01
(PID.TID 0000.0001) %MON dynstat_salt_sd              =   5.3191490214564E-01
(PID.TID 0000.0001) %MON dynstat_salt_del2            =   1.0529662068428E-03
(PID.TID 0000.0001) %MON dynstat_sst_max              =   3.0924778183449E+01
(PID.TID 0000.0001) %MON dynstat_sst_min              =  -1.9349143928419E+00
(PID.TID 0000.0001) %MON dynstat_sst_mean             =   1.8107427872613E+01
(PID.TID 0000.0001) %MON dynstat_sst_sd               =   9.8114411961171E+00
(PID.TID 0000.0001) %MON dynstat_sst_del2             =   1.5033547448076E-02
(PID.TID 0000.0001) %MON dynstat_sss_max              =   4.1348862640191E+01
(PID.TID 0000.0001) %MON dynstat_sss_min              =   1.8751940147633E+01
(PID.TID 0000.0001) %MON dynstat_sss_mean             =   3.4624264425556E+01
(PID.TID 0000.0001) %MON dynstat_sss_sd               =   1.4814926286782E+00
(PID.TID 0000.0001) %MON dynstat_sss_del2             =   1.1724313040807E-02
(PID.TID 0000.0001) %MON forcing_qnet_max             =   2.1981167156681E+04
(PID.TID 0000.0001) %MON forcing_qnet_min             =  -1.4977729492188E+03
(PID.TID 0000.0001) %MON forcing_qnet_mean            =   1.2167337964979E+01
(PID.TID 0000.0001) %MON forcing_qnet_sd              =   3.9176578962745E+02
(PID.TID 0000.0001) %MON forcing_qnet_del2            =   1.2820325169339E+01
(PID.TID 0000.0001) %MON forcing_qsw_max              =   0.0000000000000E+00
(PID.TID 0000.0001) %MON forcing_qsw_min              =  -1.0221774286416E+02
(PID.TID 0000.0001) %MON forcing_qsw_mean             =  -1.4263101085519E+01
(PID.TID 0000.0001) %MON forcing_qsw_sd               =   2.3892149510098E+01
(PID.TID 0000.0001) %MON forcing_qsw_del2             =   1.4013962201643E-01
(PID.TID 0000.0001) %MON forcing_empmr_max            =   6.2102596275508E-03
(PID.TID 0000.0001) %MON forcing_empmr_min            =  -3.9325699210167E-01
(PID.TID 0000.0001) %MON forcing_empmr_mean           =  -3.6067107102553E-04
(PID.TID 0000.0001) %MON forcing_empmr_sd             =   7.1850061691636E-03
(PID.TID 0000.0001) %MON forcing_empmr_del2           =   2.6785873108389E-04
(PID.TID 0000.0001) %MON forcing_fu_max               =   3.8699768802063E-01
(PID.TID 0000.0001) %MON forcing_fu_min               =  -3.3708627409554E-01
(PID.TID 0000.0001) %MON forcing_fu_mean              =  -3.1112824750542E-03
(PID.TID 0000.0001) %MON forcing_fu_sd                =   6.2657759045975E-02
(PID.TID 0000.0001) %MON forcing_fu_del2              =   6.2333717546393E-04
(PID.TID 0000.0001) %MON forcing_fv_max               =   3.1922909313397E-01
(PID.TID 0000.0001) %MON forcing_fv_min               =  -2.8507941147848E-01
(PID.TID 0000.0001) %MON forcing_fv_mean              =  -1.4995013973104E-02
(PID.TID 0000.0001) %MON forcing_fv_sd                =   6.2699835120094E-02
(PID.TID 0000.0001) %MON forcing_fv_del2              =   5.4193550024334E-04
(PID.TID 0000.0001) %MON trAdv_CFL_u_max              =   2.0223640571737E-03
(PID.TID 0000.0001) %MON trAdv_CFL_v_max              =   2.2971156037666E-03
(PID.TID 0000.0001) %MON trAdv_CFL_w_max              =   6.2644834167282E-03
(PID.TID 0000.0001) %MON advcfl_uvel_max              =   2.0778568727971E-03
(PID.TID 0000.0001) %MON advcfl_vvel_max              =   2.2614982159993E-03
(PID.TID 0000.0001) %MON advcfl_wvel_max              =   1.3678504073102E-02
(PID.TID 0000.0001) %MON advcfl_W_hf_max              =   6.2644834167282E-03
(PID.TID 0000.0001) %MON pe_b_mean                    =   5.0176041635337E-04
(PID.TID 0000.0001) %MON ke_max                       =   2.3378028006592E-01
(PID.TID 0000.0001) %MON ke_mean                      =   1.6537258379865E-04
(PID.TID 0000.0001) %MON ke_vol                       =   1.3398126319383E+18
(PID.TID 0000.0001) %MON vort_r_min                   =  -4.3089601561627E-06
(PID.TID 0000.0001) %MON vort_r_max                   =   2.6227960659530E-06
(PID.TID 0000.0001) %MON vort_a_mean                  =  -2.0549865324846E-05
(PID.TID 0000.0001) %MON vort_a_sd                    =   7.5259716501448E-05
(PID.TID 0000.0001) %MON vort_p_mean                  =  -2.4783282307542E-05
(PID.TID 0000.0001) %MON vort_p_sd                    =   1.2811897355452E-04
(PID.TID 0000.0001) %MON surfExpan_theta_mean         =  -8.0301597892212E-06
(PID.TID 0000.0001) %MON surfExpan_salt_mean          =   1.2497258126351E-06
(PID.TID 0000.0001) // =======================================================
(PID.TID 0000.0001) // End MONITOR dynamic field statistics
(PID.TID 0000.0001) // =======================================================
(PID.TID 0000.0001) // =======================================================
(PID.TID 0000.0001) // Begin MONITOR SEAICE statistics
(PID.TID 0000.0001) // =======================================================
(PID.TID 0000.0001) %MON seaice_tsnumber              =                 72057
(PID.TID 0000.0001) %MON seaice_time_sec              =   6.4851300000000E+07
(PID.TID 0000.0001) %MON seaice_uice_max              =   5.2760097839489E-01
(PID.TID 0000.0001) %MON seaice_uice_min              =  -4.8036666721376E-01
(PID.TID 0000.0001) %MON seaice_uice_mean             =  -5.2570809034341E-03
(PID.TID 0000.0001) %MON seaice_uice_sd               =   5.6153615141358E-02
(PID.TID 0000.0001) %MON seaice_uice_del2             =   9.3765166170872E-04
(PID.TID 0000.0001) %MON seaice_vice_max              =   6.7735718684051E-01
(PID.TID 0000.0001) %MON seaice_vice_min              =  -5.9223094335768E-01
(PID.TID 0000.0001) %MON seaice_vice_mean             =  -1.4768118157986E-02
(PID.TID 0000.0001) %MON seaice_vice_sd               =   6.4002757155904E-02
(PID.TID 0000.0001) %MON seaice_vice_del2             =   9.3263197220911E-04
(PID.TID 0000.0001) %MON seaice_area_max              =   1.0000000000000E+00
(PID.TID 0000.0001) %MON seaice_area_min              =   0.0000000000000E+00
(PID.TID 0000.0001) %MON seaice_area_mean             =   6.9088847469079E-02
(PID.TID 0000.0001) %MON seaice_area_sd               =   2.3741252271031E-01
(PID.TID 0000.0001) %MON seaice_area_del2             =   1.7453996288951E-03
(PID.TID 0000.0001) %MON seaice_heff_max              =   8.5372409710214E+00
(PID.TID 0000.0001) %MON seaice_heff_min              =   0.0000000000000E+00
(PID.TID 0000.0001) %MON seaice_heff_mean             =   2.0608400229353E-01
(PID.TID 0000.0001) %MON seaice_heff_sd               =   9.8020450986841E-01
(PID.TID 0000.0001) %MON seaice_heff_del2             =   6.2395310884360E-03
(PID.TID 0000.0001) %MON seaice_hsnow_max             =   2.0318292185147E+00
(PID.TID 0000.0001) %MON seaice_hsnow_min             =   0.0000000000000E+00
(PID.TID 0000.0001) %MON seaice_hsnow_mean            =   2.2739972556822E-02
(PID.TID 0000.0001) %MON seaice_hsnow_sd              =   1.1943100457269E-01
(PID.TID 0000.0001) %MON seaice_hsnow_del2            =   1.4618442861734E-03
(PID.TID 0000.0001) // =======================================================
(PID.TID 0000.0001) // End MONITOR SEAICE statistics
(PID.TID 0000.0001) // =======================================================
 Computing Diagnostic #    211  SIarea       Counter:       1   Parms: SM      M1      
 Computing Diagnostic #    214  SIheff       Counter:       1   Parms: SM      M1      
 Computing Diagnostic #    216  SIhsnow      Counter:       1   Parms: SM      M1      
 Computing Diagnostic #     83  sIceLoad     Counter:       1   Parms: SM      U1      
 Computing Diagnostic #    220  SIuice       Counter:       1   Parms: UU      M1      
           Vector  Mate for  SIuice       Diagnostic #    221  SIvice   exists 
 Computing Diagnostic #    221  SIvice       Counter:       1   Parms: VV      M1      
           Vector  Mate for  SIvice       Diagnostic #    220  SIuice   exists 
 Computing Diagnostic #    222  SItaux       Counter:       1   Parms: UU      U1      
           Vector  Mate for  SItaux       Diagnostic #    223  SItauy   exists 
 Computing Diagnostic #    223  SItauy       Counter:       1   Parms: VV      U1      
           Vector  Mate for  SItauy       Diagnostic #    222  SItaux   exists 
 Computing Diagnostic #      1  SDIAG1       Counter:       1   Parms: SM      L1      
 Computing Diagnostic #    282  SIareaN      Counter:       1   Parms: SM      MX      
 Computing Diagnostic #    281  SIheffN      Counter:       1   Parms: SM      MX      
 Computing Diagnostic #    283  SIhsnowN     Counter:       1   Parms: SM      MX      
 SEAICE_LSR: Residual Initial ipass,Uice,Vice=    1  3.42629701E-03  1.78730057E-03
 SEAICE_LSR (ipass=   1) iters,dU,Resid=     8  5.04400367E-05  5.51397073E-05
 SEAICE_LSR (ipass=   1) iters,dV,Resid=     8  1.58170400E-06  9.64292465E-06
 SEAICE_LSR: Residual Initial ipass,Uice,Vice=    2  2.29292237E-03  1.45654592E-03
 SEAICE_LSR (ipass=   2) iters,dU,Resid=     6  6.00289941E-05  6.93458723E-05
 SEAICE_LSR (ipass=   2) iters,dV,Resid=     6  9.30044317E-06  1.77819610E-05
 cg2d: Sum(rhs),rhsMax =  -4.98990604348845E+01  4.92297322122396E+01
(PID.TID 0000.0001)      cg2d_init_res =   2.43121234323730E-01
(PID.TID 0000.0001)      cg2d_iters(min,last) =      -1      10
(PID.TID 0000.0001)      cg2d_last_res =   8.54594673933621E-08
(PID.TID 0000.0001) // =======================================================
(PID.TID 0000.0001) // Begin MONITOR dynamic field statistics
(PID.TID 0000.0001) // =======================================================
(PID.TID 0000.0001) %MON time_tsnumber                =                 72058
(PID.TID 0000.0001) %MON time_secondsf                =   6.4852200000000E+07
(PID.TID 0000.0001) %MON dynstat_eta_max              =   2.1934782121616E+00
(PID.TID 0000.0001) %MON dynstat_eta_min              =  -1.5874337625944E+00
(PID.TID 0000.0001) %MON dynstat_eta_mean             =   2.8544406326562E-02
(PID.TID 0000.0001) %MON dynstat_eta_sd               =   6.1263714084491E-01
(PID.TID 0000.0001) %MON dynstat_eta_del2             =   1.7132898713214E-03
(PID.TID 0000.0001) %MON dynstat_uvel_max             =   6.6494511967878E-01
(PID.TID 0000.0001) %MON dynstat_uvel_min             =  -7.1461758080688E-01
(PID.TID 0000.0001) %MON dynstat_uvel_mean            =  -4.0039794065099E-04
(PID.TID 0000.0001) %MON dynstat_uvel_sd              =   1.2855491827931E-02
(PID.TID 0000.0001) %MON dynstat_uvel_del2            =   9.7721123396742E-05
(PID.TID 0000.0001) %MON dynstat_vvel_max             =   7.0194626515822E-01
(PID.TID 0000.0001) %MON dynstat_vvel_min             =  -6.4777959388068E-01
(PID.TID 0000.0001) %MON dynstat_vvel_mean            =   5.0413174268633E-04
(PID.TID 0000.0001) %MON dynstat_vvel_sd              =   1.3910955398510E-02
(PID.TID 0000.0001) %MON dynstat_vvel_del2            =   9.8483249410526E-05
(PID.TID 0000.0001) %MON dynstat_wvel_max             =   1.2593175197949E-04
(PID.TID 0000.0001) %MON dynstat_wvel_min             =  -1.9014219503980E-04
(PID.TID 0000.0001) %MON dynstat_wvel_mean            =  -3.4438116507402E-07
(PID.TID 0000.0001) %MON dynstat_wvel_sd              =   8.0966607478045E-06
(PID.TID 0000.0001) %MON dynstat_wvel_del2            =   7.7348782372118E-08
(PID.TID 0000.0001) %MON dynstat_theta_max            =   3.0924716698379E+01
(PID.TID 0000.0001) %MON dynstat_theta_min            =  -3.0061733580011E+00
(PID.TID 0000.0001) %MON dynstat_theta_mean           =   3.9091460842903E+00
(PID.TID 0000.0001) %MON dynstat_theta_sd             =   4.5714490229354E+00
(PID.TID 0000.0001) %MON dynstat_theta_del2           =   2.6418579161646E-03
(PID.TID 0000.0001) %MON dynstat_salt_max             =   4.1348644409962E+01
(PID.TID 0000.0001) %MON dynstat_salt_min             =   1.8518960381578E+01
(PID.TID 0000.0001) %MON dynstat_salt_mean            =   3.4771948013591E+01
(PID.TID 0000.0001) %MON dynstat_salt_sd              =   5.3193003726987E-01
(PID.TID 0000.0001) %MON dynstat_salt_del2            =   1.0567083955757E-03
(PID.TID 0000.0001) %MON dynstat_sst_max              =   3.0924716698379E+01
(PID.TID 0000.0001) %MON dynstat_sst_min              =  -1.9345829755063E+00
(PID.TID 0000.0001) %MON dynstat_sst_mean             =   1.8107415944578E+01
(PID.TID 0000.0001) %MON dynstat_sst_sd               =   9.8115033235915E+00
(PID.TID 0000.0001) %MON dynstat_sst_del2             =   1.5030913292642E-02
(PID.TID 0000.0001) %MON dynstat_sss_max              =   4.1348644409962E+01
(PID.TID 0000.0001) %MON dynstat_sss_min              =   1.8751965587972E+01
(PID.TID 0000.0001) %MON dynstat_sss_mean             =   3.4624093602028E+01
(PID.TID 0000.0001) %MON dynstat_sss_sd               =   1.4818778832598E+00
(PID.TID 0000.0001) %MON dynstat_sss_del2             =   1.1777370681691E-02
(PID.TID 0000.0001) %MON forcing_qnet_max             =   1.9969094238281E+03
(PID.TID 0000.0001) %MON forcing_qnet_min             =  -1.2103583984375E+03
(PID.TID 0000.0001) %MON forcing_qnet_mean            =   6.0728943057383E+00
(PID.TID 0000.0001) %MON forcing_qnet_sd              =   2.0263142981130E+02
(PID.TID 0000.0001) %MON forcing_qnet_del2            =   4.1100917022548E+00
(PID.TID 0000.0001) %MON forcing_qsw_max              =   0.0000000000000E+00
(PID.TID 0000.0001) %MON forcing_qsw_min              =  -1.0232966479139E+02
(PID.TID 0000.0001) %MON forcing_qsw_mean             =  -1.4400139430304E+01
(PID.TID 0000.0001) %MON forcing_qsw_sd               =   2.4203737840525E+01
(PID.TID 0000.0001) %MON forcing_qsw_del2             =   1.4029669339412E-01
(PID.TID 0000.0001) %MON forcing_empmr_max            =   6.1462968587875E-03
(PID.TID 0000.0001) %MON forcing_empmr_min            =  -8.8359162211418E-02
(PID.TID 0000.0001) %MON forcing_empmr_mean           =  -2.7251681304763E-04
(PID.TID 0000.0001) %MON forcing_empmr_sd             =   3.9107702609104E-03
(PID.TID 0000.0001) %MON forcing_empmr_del2           =   1.5473609423506E-04
(PID.TID 0000.0001) %MON forcing_fu_max               =   3.8756966816550E-01
(PID.TID 0000.0001) %MON forcing_fu_min               =  -3.3297953867743E-01
(PID.TID 0000.0001) %MON forcing_fu_mean              =  -3.0278307879268E-03
(PID.TID 0000.0001) %MON forcing_fu_sd                =   6.2749112916857E-02
(PID.TID 0000.0001) %MON forcing_fu_del2              =   6.2327053447995E-04
(PID.TID 0000.0001) %MON forcing_fv_max               =   3.1843617382426E-01
(PID.TID 0000.0001) %MON forcing_fv_min               =  -2.8264212254127E-01
(PID.TID 0000.0001) %MON forcing_fv_mean              =  -1.4987835565944E-02
(PID.TID 0000.0001) %MON forcing_fv_sd                =   6.2566518944383E-02
(PID.TID 0000.0001) %MON forcing_fv_del2              =   5.4158397822818E-04
(PID.TID 0000.0001) %MON trAdv_CFL_u_max              =   2.1622530583414E-03
(PID.TID 0000.0001) %MON trAdv_CFL_v_max              =   2.3310202814106E-03
(PID.TID 0000.0001) %MON trAdv_CFL_w_max              =   1.8854238248497E-03
(PID.TID 0000.0001) %MON advcfl_uvel_max              =   2.2174367978618E-03
(PID.TID 0000.0001) %MON advcfl_vvel_max              =   2.2907067123221E-03
(PID.TID 0000.0001) %MON advcfl_wvel_max              =   3.0733621638754E-03
(PID.TID 0000.0001) %MON advcfl_W_hf_max              =   1.8854238248497E-03
(PID.TID 0000.0001) %MON pe_b_mean                    =   5.0108287048991E-04
(PID.TID 0000.0001) %MON ke_max                       =   2.4127795833450E-01
(PID.TID 0000.0001) %MON ke_mean                      =   1.6589448629223E-04
(PID.TID 0000.0001) %MON ke_vol                       =   1.3398127460630E+18
(PID.TID 0000.0001) %MON vort_r_min                   =  -4.4066232076658E-06
(PID.TID 0000.0001) %MON vort_r_max                   =   2.7286759706893E-06
(PID.TID 0000.0001) %MON vort_a_mean                  =  -2.0549865324846E-05
(PID.TID 0000.0001) %MON vort_a_sd                    =   7.5259722476364E-05
(PID.TID 0000.0001) %MON vort_p_mean                  =  -2.4783279774336E-05
(PID.TID 0000.0001) %MON vort_p_sd                    =   1.2811896868511E-04
(PID.TID 0000.0001) %MON surfExpan_theta_mean         =  -7.2574206446552E-06
(PID.TID 0000.0001) %MON surfExpan_salt_mean          =   1.3251358995581E-06
(PID.TID 0000.0001) // =======================================================
(PID.TID 0000.0001) // End MONITOR dynamic field statistics
(PID.TID 0000.0001) // =======================================================
(PID.TID 0000.0001) // =======================================================
(PID.TID 0000.0001) // Begin MONITOR SEAICE statistics
(PID.TID 0000.0001) // =======================================================
(PID.TID 0000.0001) %MON seaice_tsnumber              =                 72058
(PID.TID 0000.0001) %MON seaice_time_sec              =   6.4852200000000E+07
(PID.TID 0000.0001) %MON seaice_uice_max              =   5.8549100064322E-01
(PID.TID 0000.0001) %MON seaice_uice_min              =  -5.0611761271719E-01
(PID.TID 0000.0001) %MON seaice_uice_mean             =  -5.0874068366653E-03
(PID.TID 0000.0001) %MON seaice_uice_sd               =   5.6733282080450E-02
(PID.TID 0000.0001) %MON seaice_uice_del2             =   9.4727819588790E-04
(PID.TID 0000.0001) %MON seaice_vice_max              =   7.0024398164589E-01
(PID.TID 0000.0001) %MON seaice_vice_min              =  -6.0110409515132E-01
(PID.TID 0000.0001) %MON seaice_vice_mean             =  -1.4710413420949E-02
(PID.TID 0000.0001) %MON seaice_vice_sd               =   6.4201167241811E-02
(PID.TID 0000.0001) %MON seaice_vice_del2             =   9.5460534331440E-04
(PID.TID 0000.0001) %MON seaice_area_max              =   1.0000000000000E+00
(PID.TID 0000.0001) %MON seaice_area_min              =   0.0000000000000E+00
(PID.TID 0000.0001) %MON seaice_area_mean             =   6.9081965372332E-02
(PID.TID 0000.0001) %MON seaice_area_sd               =   2.3739493988077E-01
(PID.TID 0000.0001) %MON seaice_area_del2             =   1.7444753944536E-03
(PID.TID 0000.0001) %MON seaice_heff_max              =   8.5379665337775E+00
(PID.TID 0000.0001) %MON seaice_heff_min              =   0.0000000000000E+00
(PID.TID 0000.0001) %MON seaice_heff_mean             =   2.0607841313675E-01
(PID.TID 0000.0001) %MON seaice_heff_sd               =   9.8021196200169E-01
(PID.TID 0000.0001) %MON seaice_heff_del2             =   6.2394102051177E-03
(PID.TID 0000.0001) %MON seaice_hsnow_max             =   2.0318359746779E+00
(PID.TID 0000.0001) %MON seaice_hsnow_min             =   0.0000000000000E+00
(PID.TID 0000.0001) %MON seaice_hsnow_mean            =   2.2739131827852E-02
(PID.TID 0000.0001) %MON seaice_hsnow_sd              =   1.1942722668540E-01
(PID.TID 0000.0001) %MON seaice_hsnow_del2            =   1.4617642101065E-03
(PID.TID 0000.0001) // =======================================================
(PID.TID 0000.0001) // End MONITOR SEAICE statistics
(PID.TID 0000.0001) // =======================================================
 SEAICE_LSR: Residual Initial ipass,Uice,Vice=    1  3.52041493E-03  1.79699003E-03
 SEAICE_LSR (ipass=   1) iters,dU,Resid=     8  4.66585756E-05  5.26710973E-05
 SEAICE_LSR (ipass=   1) iters,dV,Resid=     8  1.46475012E-05  8.91612623E-06
 SEAICE_LSR: Residual Initial ipass,Uice,Vice=    2  2.53640864E-03  1.67312891E-03
 SEAICE_LSR (ipass=   2) iters,dU,Resid=     8  3.73761104E-05  3.43590165E-05
 SEAICE_LSR (ipass=   2) iters,dV,Resid=     8  2.76280638E-05  8.77293856E-06
 cg2d: Sum(rhs),rhsMax =  -5.41053249546920E+01  4.57684222595817E+01
(PID.TID 0000.0001)      cg2d_init_res =   2.63843816254085E-01
(PID.TID 0000.0001)      cg2d_iters(min,last) =      -1      10
(PID.TID 0000.0001)      cg2d_last_res =   8.20740721972199E-08
(PID.TID 0000.0001) // =======================================================
(PID.TID 0000.0001) // Begin MONITOR dynamic field statistics
(PID.TID 0000.0001) // =======================================================
(PID.TID 0000.0001) %MON time_tsnumber                =                 72059
(PID.TID 0000.0001) %MON time_secondsf                =   6.4853100000000E+07
(PID.TID 0000.0001) %MON dynstat_eta_max              =   2.0395335719614E+00
(PID.TID 0000.0001) %MON dynstat_eta_min              =  -1.5862606504224E+00
(PID.TID 0000.0001) %MON dynstat_eta_mean             =   2.8774456184986E-02
(PID.TID 0000.0001) %MON dynstat_eta_sd               =   6.1228229237902E-01
(PID.TID 0000.0001) %MON dynstat_eta_del2             =   1.6084659330306E-03
(PID.TID 0000.0001) %MON dynstat_uvel_max             =   6.9506447007922E-01
(PID.TID 0000.0001) %MON dynstat_uvel_min             =  -7.3408420869625E-01
(PID.TID 0000.0001) %MON dynstat_uvel_mean            =  -3.8098988950267E-04
(PID.TID 0000.0001) %MON dynstat_uvel_sd              =   1.2896294078731E-02
(PID.TID 0000.0001) %MON dynstat_uvel_del2            =   9.7932394924835E-05
(PID.TID 0000.0001) %MON dynstat_vvel_max             =   6.9919087453952E-01
(PID.TID 0000.0001) %MON dynstat_vvel_min             =  -6.5431186493609E-01
(PID.TID 0000.0001) %MON dynstat_vvel_mean            =   5.2039324192561E-04
(PID.TID 0000.0001) %MON dynstat_vvel_sd              =   1.3906121677779E-02
(PID.TID 0000.0001) %MON dynstat_vvel_del2            =   9.9947504316433E-05
(PID.TID 0000.0001) %MON dynstat_wvel_max             =   1.2129241725487E-04
(PID.TID 0000.0001) %MON dynstat_wvel_min             =  -1.9009287763228E-04
(PID.TID 0000.0001) %MON dynstat_wvel_mean            =  -3.4080485203476E-07
(PID.TID 0000.0001) %MON dynstat_wvel_sd              =   8.0798220547908E-06
(PID.TID 0000.0001) %MON dynstat_wvel_del2            =   7.6772842060375E-08
(PID.TID 0000.0001) %MON dynstat_theta_max            =   3.0924649041472E+01
(PID.TID 0000.0001) %MON dynstat_theta_min            =  -3.0063982366992E+00
(PID.TID 0000.0001) %MON dynstat_theta_mean           =   3.9091472270643E+00
(PID.TID 0000.0001) %MON dynstat_theta_sd             =   4.5714523692163E+00
(PID.TID 0000.0001) %MON dynstat_theta_del2           =   2.6417314635865E-03
(PID.TID 0000.0001) %MON dynstat_salt_max             =   4.1348444483587E+01
(PID.TID 0000.0001) %MON dynstat_salt_min             =   1.8518970667829E+01
(PID.TID 0000.0001) %MON dynstat_salt_mean            =   3.4771945682890E+01
(PID.TID 0000.0001) %MON dynstat_salt_sd              =   5.3194496892778E-01
(PID.TID 0000.0001) %MON dynstat_salt_del2            =   1.0603858288801E-03
(PID.TID 0000.0001) %MON dynstat_sst_max              =   3.0924649041472E+01
(PID.TID 0000.0001) %MON dynstat_sst_min              =  -1.9342439425964E+00
(PID.TID 0000.0001) %MON dynstat_sst_mean             =   1.8107402849522E+01
(PID.TID 0000.0001) %MON dynstat_sst_sd               =   9.8115619752771E+00
(PID.TID 0000.0001) %MON dynstat_sst_del2             =   1.5028606239626E-02
(PID.TID 0000.0001) %MON dynstat_sss_max              =   4.1348444483587E+01
(PID.TID 0000.0001) %MON dynstat_sss_min              =   1.8751989929773E+01
(PID.TID 0000.0001) %MON dynstat_sss_mean             =   3.4623923308418E+01
(PID.TID 0000.0001) %MON dynstat_sss_sd               =   1.4822579467166E+00
(PID.TID 0000.0001) %MON dynstat_sss_del2             =   1.1829441873017E-02
(PID.TID 0000.0001) %MON forcing_qnet_max             =   1.9733496093750E+03
(PID.TID 0000.0001) %MON forcing_qnet_min             =  -1.1930955810547E+03
(PID.TID 0000.0001) %MON forcing_qnet_mean            =   5.4188021267413E+00
(PID.TID 0000.0001) %MON forcing_qnet_sd              =   2.0271173704941E+02
(PID.TID 0000.0001) %MON forcing_qnet_del2            =   4.0091386186292E+00
(PID.TID 0000.0001) %MON forcing_qsw_max              =   0.0000000000000E+00
(PID.TID 0000.0001) %MON forcing_qsw_min              =  -1.0198728713754E+02
(PID.TID 0000.0001) %MON forcing_qsw_mean             =  -1.4495124646722E+01
(PID.TID 0000.0001) %MON forcing_qsw_sd               =   2.4499440474177E+01
(PID.TID 0000.0001) %MON forcing_qsw_del2             =   1.4023201918273E-01
(PID.TID 0000.0001) %MON forcing_empmr_max            =   6.0829250141978E-03
(PID.TID 0000.0001) %MON forcing_empmr_min            =  -8.7448745965958E-02
(PID.TID 0000.0001) %MON forcing_empmr_mean           =  -2.6455733718759E-04
(PID.TID 0000.0001) %MON forcing_empmr_sd             =   3.8531883910170E-03
(PID.TID 0000.0001) %MON forcing_empmr_del2           =   1.5255155138351E-04
(PID.TID 0000.0001) %MON forcing_fu_max               =   3.8819881304614E-01
(PID.TID 0000.0001) %MON forcing_fu_min               =  -3.3809751617950E-01
(PID.TID 0000.0001) %MON forcing_fu_mean              =  -3.0305514064821E-03
(PID.TID 0000.0001) %MON forcing_fu_sd                =   6.2892012624750E-02
(PID.TID 0000.0001) %MON forcing_fu_del2              =   6.2430700914604E-04
(PID.TID 0000.0001) %MON forcing_fv_max               =   3.2031577744233E-01
(PID.TID 0000.0001) %MON forcing_fv_min               =  -2.7987844789687E-01
(PID.TID 0000.0001) %MON forcing_fv_mean              =  -1.5009527665576E-02
(PID.TID 0000.0001) %MON forcing_fv_sd                =   6.2485827836112E-02
(PID.TID 0000.0001) %MON forcing_fv_del2              =   5.4158280927996E-04
(PID.TID 0000.0001) %MON trAdv_CFL_u_max              =   2.2646230007916E-03
(PID.TID 0000.0001) %MON trAdv_CFL_v_max              =   2.3262576605087E-03
(PID.TID 0000.0001) %MON trAdv_CFL_w_max              =   1.8680041910077E-03
(PID.TID 0000.0001) %MON advcfl_uvel_max              =   2.3178778025840E-03
(PID.TID 0000.0001) %MON advcfl_vvel_max              =   2.2817148676488E-03
(PID.TID 0000.0001) %MON advcfl_wvel_max              =   3.0416955118594E-03
(PID.TID 0000.0001) %MON advcfl_W_hf_max              =   1.8680041910077E-03
(PID.TID 0000.0001) %MON pe_b_mean                    =   5.0052136055824E-04
(PID.TID 0000.0001) %MON ke_max                       =   2.4813326955089E-01
(PID.TID 0000.0001) %MON ke_mean                      =   1.6631559811270E-04
(PID.TID 0000.0001) %MON ke_vol                       =   1.3398128322936E+18
(PID.TID 0000.0001) %MON vort_r_min                   =  -4.4908301420691E-06
(PID.TID 0000.0001) %MON vort_r_max                   =   2.8452208006777E-06
(PID.TID 0000.0001) %MON vort_a_mean                  =  -2.0549865324846E-05
(PID.TID 0000.0001) %MON vort_a_sd                    =   7.5259727658964E-05
(PID.TID 0000.0001) %MON vort_p_mean                  =  -2.4783277648366E-05
(PID.TID 0000.0001) %MON vort_p_sd                    =   1.2811898126290E-04
(PID.TID 0000.0001) %MON surfExpan_theta_mean         =  -7.1864508967920E-06
(PID.TID 0000.0001) %MON surfExpan_salt_mean          =   1.3359963146235E-06
(PID.TID 0000.0001) // =======================================================
(PID.TID 0000.0001) // End MONITOR dynamic field statistics
(PID.TID 0000.0001) // =======================================================
(PID.TID 0000.0001) // =======================================================
(PID.TID 0000.0001) // Begin MONITOR SEAICE statistics
(PID.TID 0000.0001) // =======================================================
(PID.TID 0000.0001) %MON seaice_tsnumber              =                 72059
(PID.TID 0000.0001) %MON seaice_time_sec              =   6.4853100000000E+07
(PID.TID 0000.0001) %MON seaice_uice_max              =   6.3170985853063E-01
(PID.TID 0000.0001) %MON seaice_uice_min              =  -5.3039280073797E-01
(PID.TID 0000.0001) %MON seaice_uice_mean             =  -4.9209001759064E-03
(PID.TID 0000.0001) %MON seaice_uice_sd               =   5.7314867738689E-02
(PID.TID 0000.0001) %MON seaice_uice_del2             =   9.5437954588572E-04
(PID.TID 0000.0001) %MON seaice_vice_max              =   7.1073368807820E-01
(PID.TID 0000.0001) %MON seaice_vice_min              =  -6.0873020001117E-01
(PID.TID 0000.0001) %MON seaice_vice_mean             =  -1.4656831155996E-02
(PID.TID 0000.0001) %MON seaice_vice_sd               =   6.4321792001099E-02
(PID.TID 0000.0001) %MON seaice_vice_del2             =   9.7298759826313E-04
(PID.TID 0000.0001) %MON seaice_area_max              =   1.0000000000000E+00
(PID.TID 0000.0001) %MON seaice_area_min              =   0.0000000000000E+00
(PID.TID 0000.0001) %MON seaice_area_mean             =   6.9075075256651E-02
(PID.TID 0000.0001) %MON seaice_area_sd               =   2.3737743740885E-01
(PID.TID 0000.0001) %MON seaice_area_del2             =   1.7435814872871E-03
(PID.TID 0000.0001) %MON seaice_heff_max              =   8.5386704156843E+00
(PID.TID 0000.0001) %MON seaice_heff_min              =   0.0000000000000E+00
(PID.TID 0000.0001) %MON seaice_heff_mean             =   2.0607264049315E-01
(PID.TID 0000.0001) %MON seaice_heff_sd               =   9.8021856607942E-01
(PID.TID 0000.0001) %MON seaice_heff_del2             =   6.2392650215472E-03
(PID.TID 0000.0001) %MON seaice_hsnow_max             =   2.0318472342826E+00
(PID.TID 0000.0001) %MON seaice_hsnow_min             =   0.0000000000000E+00
(PID.TID 0000.0001) %MON seaice_hsnow_mean            =   2.2738221202207E-02
(PID.TID 0000.0001) %MON seaice_hsnow_sd              =   1.1942337011655E-01
(PID.TID 0000.0001) %MON seaice_hsnow_del2            =   1.4616841881345E-03
(PID.TID 0000.0001) // =======================================================
(PID.TID 0000.0001) // End MONITOR SEAICE statistics
(PID.TID 0000.0001) // =======================================================
 SEAICE_LSR: Residual Initial ipass,Uice,Vice=    1  3.51458519E-03  1.84113224E-03
 SEAICE_LSR (ipass=   1) iters,dU,Resid=     8  7.03534605E-05  4.72537981E-05
 SEAICE_LSR (ipass=   1) iters,dV,Resid=     8  6.39462703E-05  8.45754388E-06
 SEAICE_LSR: Residual Initial ipass,Uice,Vice=    2  2.44962047E-03  1.59209141E-03
 SEAICE_LSR (ipass=   2) iters,dU,Resid=     8  3.88511915E-05  3.01949316E-05
 SEAICE_LSR (ipass=   2) iters,dV,Resid=     8  3.62616222E-05  8.37527478E-06
 cg2d: Sum(rhs),rhsMax =  -5.92252141415500E+01  4.21418772353158E+01
(PID.TID 0000.0001)      cg2d_init_res =   2.78572945898858E-01
(PID.TID 0000.0001)      cg2d_iters(min,last) =      -1      10
(PID.TID 0000.0001)      cg2d_last_res =   7.91694480214055E-08
(PID.TID 0000.0001) // =======================================================
(PID.TID 0000.0001) // Begin MONITOR dynamic field statistics
(PID.TID 0000.0001) // =======================================================
(PID.TID 0000.0001) %MON time_tsnumber                =                 72060
(PID.TID 0000.0001) %MON time_secondsf                =   6.4854000000000E+07
(PID.TID 0000.0001) %MON dynstat_eta_max              =   1.8782357747756E+00
(PID.TID 0000.0001) %MON dynstat_eta_min              =  -1.5849701014844E+00
(PID.TID 0000.0001) %MON dynstat_eta_mean             =   2.9001582117620E-02
(PID.TID 0000.0001) %MON dynstat_eta_sd               =   6.1199803195278E-01
(PID.TID 0000.0001) %MON dynstat_eta_del2             =   1.5216879424629E-03
(PID.TID 0000.0001) %MON dynstat_uvel_max             =   7.1335839446650E-01
(PID.TID 0000.0001) %MON dynstat_uvel_min             =  -7.5233100857369E-01
(PID.TID 0000.0001) %MON dynstat_uvel_mean            =  -3.6246179653525E-04
(PID.TID 0000.0001) %MON dynstat_uvel_sd              =   1.2936424467629E-02
(PID.TID 0000.0001) %MON dynstat_uvel_del2            =   9.7942804048063E-05
(PID.TID 0000.0001) %MON dynstat_vvel_max             =   6.8531517287332E-01
(PID.TID 0000.0001) %MON dynstat_vvel_min             =  -6.5750593217962E-01
(PID.TID 0000.0001) %MON dynstat_vvel_mean            =   5.3295947156520E-04
(PID.TID 0000.0001) %MON dynstat_vvel_sd              =   1.3893481669455E-02
(PID.TID 0000.0001) %MON dynstat_vvel_del2            =   1.0095968288406E-04
(PID.TID 0000.0001) %MON dynstat_wvel_max             =   1.1741108324510E-04
(PID.TID 0000.0001) %MON dynstat_wvel_min             =  -1.9006308221424E-04
(PID.TID 0000.0001) %MON dynstat_wvel_mean            =  -3.3220710733356E-07
(PID.TID 0000.0001) %MON dynstat_wvel_sd              =   8.0499163553644E-06
(PID.TID 0000.0001) %MON dynstat_wvel_del2            =   7.6069629505577E-08
(PID.TID 0000.0001) %MON dynstat_theta_max            =   3.0924575182339E+01
(PID.TID 0000.0001) %MON dynstat_theta_min            =  -3.0066028093208E+00
(PID.TID 0000.0001) %MON dynstat_theta_mean           =   3.9091483887330E+00
(PID.TID 0000.0001) %MON dynstat_theta_sd             =   4.5714557084444E+00
(PID.TID 0000.0001) %MON dynstat_theta_del2           =   2.6415891978846E-03
(PID.TID 0000.0001) %MON dynstat_salt_max             =   4.1348262405328E+01
(PID.TID 0000.0001) %MON dynstat_salt_min             =   1.8518980949257E+01
(PID.TID 0000.0001) %MON dynstat_salt_mean            =   3.4771943388709E+01
(PID.TID 0000.0001) %MON dynstat_salt_sd              =   5.3195969709955E-01
(PID.TID 0000.0001) %MON dynstat_salt_del2            =   1.0639918912175E-03
(PID.TID 0000.0001) %MON dynstat_sst_max              =   3.0924575182339E+01
(PID.TID 0000.0001) %MON dynstat_sst_min              =  -1.9338993491142E+00
(PID.TID 0000.0001) %MON dynstat_sst_mean             =   1.8107393427891E+01
(PID.TID 0000.0001) %MON dynstat_sst_sd               =   9.8116175265259E+00
(PID.TID 0000.0001) %MON dynstat_sst_del2             =   1.5026020014785E-02
(PID.TID 0000.0001) %MON dynstat_sss_max              =   4.1348262405328E+01
(PID.TID 0000.0001) %MON dynstat_sss_min              =   1.8752013367162E+01
(PID.TID 0000.0001) %MON dynstat_sss_mean             =   3.4623755623427E+01
(PID.TID 0000.0001) %MON dynstat_sss_sd               =   1.4826336683703E+00
(PID.TID 0000.0001) %MON dynstat_sss_del2             =   1.1880479500679E-02
(PID.TID 0000.0001) %MON forcing_qnet_max             =   1.9500765380859E+03
(PID.TID 0000.0001) %MON forcing_qnet_min             =  -1.1772019042969E+03
(PID.TID 0000.0001) %MON forcing_qnet_mean            =   4.5738505031498E+00
(PID.TID 0000.0001) %MON forcing_qnet_sd              =   2.0508320273650E+02
(PID.TID 0000.0001) %MON forcing_qnet_del2            =   4.0679600487101E+00
(PID.TID 0000.0001) %MON forcing_qsw_max              =   0.0000000000000E+00
(PID.TID 0000.0001) %MON forcing_qsw_min              =  -1.0119199410658E+02
(PID.TID 0000.0001) %MON forcing_qsw_mean             =  -1.4552909722570E+01
(PID.TID 0000.0001) %MON forcing_qsw_sd               =   2.4772634641091E+01
(PID.TID 0000.0001) %MON forcing_qsw_del2             =   1.3996460305792E-01
(PID.TID 0000.0001) %MON forcing_empmr_max            =   6.0202418826520E-03
(PID.TID 0000.0001) %MON forcing_empmr_min            =  -8.6547575891018E-02
(PID.TID 0000.0001) %MON forcing_empmr_mean           =  -2.6119482252901E-04
(PID.TID 0000.0001) %MON forcing_empmr_sd             =   3.8138673958729E-03
(PID.TID 0000.0001) %MON forcing_empmr_del2           =   1.5097056653957E-04
(PID.TID 0000.0001) %MON forcing_fu_max               =   3.8641675899163E-01
(PID.TID 0000.0001) %MON forcing_fu_min               =  -3.4151003613239E-01
(PID.TID 0000.0001) %MON forcing_fu_mean              =  -3.0558406702630E-03
(PID.TID 0000.0001) %MON forcing_fu_sd                =   6.2826372678875E-02
(PID.TID 0000.0001) %MON forcing_fu_del2              =   6.2330865134206E-04
(PID.TID 0000.0001) %MON forcing_fv_max               =   3.1869442562116E-01
(PID.TID 0000.0001) %MON forcing_fv_min               =  -2.7727534286677E-01
(PID.TID 0000.0001) %MON forcing_fv_mean              =  -1.5007211100745E-02
(PID.TID 0000.0001) %MON forcing_fv_sd                =   6.2360673644029E-02
(PID.TID 0000.0001) %MON forcing_fv_del2              =   5.4134575066708E-04
(PID.TID 0000.0001) %MON trAdv_CFL_u_max              =   2.3289023759096E-03
(PID.TID 0000.0001) %MON trAdv_CFL_v_max              =   2.2844803113952E-03
(PID.TID 0000.0001) %MON trAdv_CFL_w_max              =   1.8619904856790E-03
(PID.TID 0000.0001) %MON advcfl_uvel_max              =   2.3788837712168E-03
(PID.TID 0000.0001) %MON advcfl_vvel_max              =   2.2364333916689E-03
(PID.TID 0000.0001) %MON advcfl_wvel_max              =   3.0103504657745E-03
(PID.TID 0000.0001) %MON advcfl_W_hf_max              =   1.8619904856790E-03
(PID.TID 0000.0001) %MON pe_b_mean                    =   5.0007519472763E-04
(PID.TID 0000.0001) %MON ke_max                       =   2.5419111759026E-01
(PID.TID 0000.0001) %MON ke_mean                      =   1.6662865387778E-04
(PID.TID 0000.0001) %MON ke_vol                       =   1.3398129160057E+18
(PID.TID 0000.0001) %MON vort_r_min                   =  -4.5603172833273E-06
(PID.TID 0000.0001) %MON vort_r_max                   =   2.9230617685465E-06
(PID.TID 0000.0001) %MON vort_a_mean                  =  -2.0549865324846E-05
(PID.TID 0000.0001) %MON vort_a_sd                    =   7.5259732010646E-05
(PID.TID 0000.0001) %MON vort_p_mean                  =  -2.4783275568877E-05
(PID.TID 0000.0001) %MON vort_p_sd                    =   1.2811900072153E-04
(PID.TID 0000.0001) %MON surfExpan_theta_mean         =  -7.1257380481287E-06
(PID.TID 0000.0001) %MON surfExpan_salt_mean          =   1.3412096824874E-06
(PID.TID 0000.0001) // =======================================================
(PID.TID 0000.0001) // End MONITOR dynamic field statistics
(PID.TID 0000.0001) // =======================================================
(PID.TID 0000.0001) // =======================================================
(PID.TID 0000.0001) // Begin MONITOR SEAICE statistics
(PID.TID 0000.0001) // =======================================================
(PID.TID 0000.0001) %MON seaice_tsnumber              =                 72060
(PID.TID 0000.0001) %MON seaice_time_sec              =   6.4854000000000E+07
(PID.TID 0000.0001) %MON seaice_uice_max              =   6.6582837229289E-01
(PID.TID 0000.0001) %MON seaice_uice_min              =  -5.5303953798903E-01
(PID.TID 0000.0001) %MON seaice_uice_mean             =  -4.7659495193070E-03
(PID.TID 0000.0001) %MON seaice_uice_sd               =   5.7913814247653E-02
(PID.TID 0000.0001) %MON seaice_uice_del2             =   9.6017768881898E-04
(PID.TID 0000.0001) %MON seaice_vice_max              =   7.0924571246806E-01
(PID.TID 0000.0001) %MON seaice_vice_min              =  -6.1453045849882E-01
(PID.TID 0000.0001) %MON seaice_vice_mean             =  -1.4603036125086E-02
(PID.TID 0000.0001) %MON seaice_vice_sd               =   6.4360750674312E-02
(PID.TID 0000.0001) %MON seaice_vice_del2             =   9.8679562073269E-04
(PID.TID 0000.0001) %MON seaice_area_max              =   1.0000000000000E+00
(PID.TID 0000.0001) %MON seaice_area_min              =   0.0000000000000E+00
(PID.TID 0000.0001) %MON seaice_area_mean             =   6.9068191008919E-02
(PID.TID 0000.0001) %MON seaice_area_sd               =   2.3736000469048E-01
(PID.TID 0000.0001) %MON seaice_area_del2             =   1.7427268839529E-03
(PID.TID 0000.0001) %MON seaice_heff_max              =   8.5393558697626E+00
(PID.TID 0000.0001) %MON seaice_heff_min              =   0.0000000000000E+00
(PID.TID 0000.0001) %MON seaice_heff_mean             =   2.0606675181621E-01
(PID.TID 0000.0001) %MON seaice_heff_sd               =   9.8022454453196E-01
(PID.TID 0000.0001) %MON seaice_heff_del2             =   6.2390610552245E-03
(PID.TID 0000.0001) %MON seaice_hsnow_max             =   2.0318578003572E+00
(PID.TID 0000.0001) %MON seaice_hsnow_min             =   0.0000000000000E+00
(PID.TID 0000.0001) %MON seaice_hsnow_mean            =   2.2737237188012E-02
(PID.TID 0000.0001) %MON seaice_hsnow_sd              =   1.1941937669801E-01
(PID.TID 0000.0001) %MON seaice_hsnow_del2            =   1.4616126240474E-03
(PID.TID 0000.0001) // =======================================================
(PID.TID 0000.0001) // End MONITOR SEAICE statistics
(PID.TID 0000.0001) // =======================================================
 Compute Stats, Diag. #    211  SIarea    vol(   0 ): 1.456E+15  Parms: SM      M1      
 Compute Stats, Diag. #    214  SIheff    vol(   0 ): 1.456E+15  Parms: SM      M1      
 Compute Stats, Diag. #    216  SIhsnow   vol(   0 ): 1.456E+15  Parms: SM      M1      
 Compute Stats, Diag. #     83  sIceLoad  vol(   0 ): 1.456E+15  Parms: SM      U1      
 Compute Stats, Diag. #    220  SIuice    vol(   0 ): 1.383E+15  Parms: UU      M1      
 Compute Stats, Diag. #    221  SIvice    vol(   0 ): 1.391E+15  Parms: VV      M1      
 Compute Stats, Diag. #    222  SItaux    vol(   0 ): 1.383E+15  Parms: UU      U1      
 Compute Stats, Diag. #    223  SItauy    vol(   0 ): 1.391E+15  Parms: VV      U1      
 SEAICE_LSR: Residual Initial ipass,Uice,Vice=    1  3.48704729E-03  1.90303729E-03
 SEAICE_LSR (ipass=   1) iters,dU,Resid=     8  6.48919240E-05  4.35372246E-05
 SEAICE_LSR (ipass=   1) iters,dV,Resid=     8  6.11249745E-05  6.63138119E-06
 SEAICE_LSR: Residual Initial ipass,Uice,Vice=    2  2.40458887E-03  1.57949701E-03
 SEAICE_LSR (ipass=   2) iters,dU,Resid=     8  3.49759234E-05  2.76189549E-05
 SEAICE_LSR (ipass=   2) iters,dV,Resid=     8  3.52929169E-05  6.94635380E-06
 cg2d: Sum(rhs),rhsMax =  -6.55262035473265E+01  3.83846487631928E+01
(PID.TID 0000.0001)      cg2d_init_res =   2.96103464436238E-01
(PID.TID 0000.0001)      cg2d_iters(min,last) =      -1      10
(PID.TID 0000.0001)      cg2d_last_res =   7.91517885730133E-08
(PID.TID 0000.0001) // =======================================================
(PID.TID 0000.0001) // Begin MONITOR dynamic field statistics
(PID.TID 0000.0001) // =======================================================
(PID.TID 0000.0001) %MON time_tsnumber                =                 72061
(PID.TID 0000.0001) %MON time_secondsf                =   6.4854900000000E+07
(PID.TID 0000.0001) %MON dynstat_eta_max              =   1.7111188834372E+00
(PID.TID 0000.0001) %MON dynstat_eta_min              =  -1.5835247102976E+00
(PID.TID 0000.0001) %MON dynstat_eta_mean             =   2.9226294136564E-02
(PID.TID 0000.0001) %MON dynstat_eta_sd               =   6.1177663491423E-01
(PID.TID 0000.0001) %MON dynstat_eta_del2             =   1.4532966390836E-03
(PID.TID 0000.0001) %MON dynstat_uvel_max             =   7.1997394703177E-01
(PID.TID 0000.0001) %MON dynstat_uvel_min             =  -7.6905762383650E-01
(PID.TID 0000.0001) %MON dynstat_uvel_mean            =  -3.4525818031882E-04
(PID.TID 0000.0001) %MON dynstat_uvel_sd              =   1.2974901132913E-02
(PID.TID 0000.0001) %MON dynstat_uvel_del2            =   9.7769682427115E-05
(PID.TID 0000.0001) %MON dynstat_vvel_max             =   6.6106368151763E-01
(PID.TID 0000.0001) %MON dynstat_vvel_min             =  -6.5729340632525E-01
(PID.TID 0000.0001) %MON dynstat_vvel_mean            =   5.4176602073884E-04
(PID.TID 0000.0001) %MON dynstat_vvel_sd              =   1.3874407363976E-02
(PID.TID 0000.0001) %MON dynstat_vvel_del2            =   1.0147529763128E-04
(PID.TID 0000.0001) %MON dynstat_wvel_max             =   1.1636272564792E-04
(PID.TID 0000.0001) %MON dynstat_wvel_min             =  -1.9005107020518E-04
(PID.TID 0000.0001) %MON dynstat_wvel_mean            =  -3.1889149964130E-07
(PID.TID 0000.0001) %MON dynstat_wvel_sd              =   8.0147557839487E-06
(PID.TID 0000.0001) %MON dynstat_wvel_del2            =   7.5309295146578E-08
(PID.TID 0000.0001) %MON dynstat_theta_max            =   3.0924496215453E+01
(PID.TID 0000.0001) %MON dynstat_theta_min            =  -3.0067993275099E+00
(PID.TID 0000.0001) %MON dynstat_theta_mean           =   3.9091496691755E+00
(PID.TID 0000.0001) %MON dynstat_theta_sd             =   4.5714593534342E+00
(PID.TID 0000.0001) %MON dynstat_theta_del2           =   2.6414482212374E-03
(PID.TID 0000.0001) %MON dynstat_salt_max             =   4.1348098144584E+01
(PID.TID 0000.0001) %MON dynstat_salt_min             =   1.8518991224684E+01
(PID.TID 0000.0001) %MON dynstat_salt_mean            =   3.4771941132692E+01
(PID.TID 0000.0001) %MON dynstat_salt_sd              =   5.3197421353234E-01
(PID.TID 0000.0001) %MON dynstat_salt_del2            =   1.0675297556449E-03
(PID.TID 0000.0001) %MON dynstat_sst_max              =   3.0924496215453E+01
(PID.TID 0000.0001) %MON dynstat_sst_min              =  -1.9335491154217E+00
(PID.TID 0000.0001) %MON dynstat_sst_mean             =   1.8107393139896E+01
(PID.TID 0000.0001) %MON dynstat_sst_sd               =   9.8116705015544E+00
(PID.TID 0000.0001) %MON dynstat_sst_del2             =   1.5023496840230E-02
(PID.TID 0000.0001) %MON dynstat_sss_max              =   4.1348098144584E+01
(PID.TID 0000.0001) %MON dynstat_sss_min              =   1.8752035995318E+01
(PID.TID 0000.0001) %MON dynstat_sss_mean             =   3.4623590148829E+01
(PID.TID 0000.0001) %MON dynstat_sss_sd               =   1.4830045817324E+00
(PID.TID 0000.0001) %MON dynstat_sss_del2             =   1.1930517848812E-02
(PID.TID 0000.0001) %MON forcing_qnet_max             =   1.9270865478516E+03
(PID.TID 0000.0001) %MON forcing_qnet_min             =  -1.1603754882812E+03
(PID.TID 0000.0001) %MON forcing_qnet_mean            =   2.1189899913541E+00
(PID.TID 0000.0001) %MON forcing_qnet_sd              =   2.0848783598246E+02
(PID.TID 0000.0001) %MON forcing_qnet_del2            =   4.0252364364496E+00
(PID.TID 0000.0001) %MON forcing_qsw_max              =   0.0000000000000E+00
(PID.TID 0000.0001) %MON forcing_qsw_min              =  -1.0031421193845E+02
(PID.TID 0000.0001) %MON forcing_qsw_mean             =  -1.4856664766452E+01
(PID.TID 0000.0001) %MON forcing_qsw_sd               =   2.5678564816546E+01
(PID.TID 0000.0001) %MON forcing_qsw_del2             =   1.4030463510698E-01
(PID.TID 0000.0001) %MON forcing_empmr_max            =   8.5230153053999E-03
(PID.TID 0000.0001) %MON forcing_empmr_min            =  -8.5656464099884E-02
(PID.TID 0000.0001) %MON forcing_empmr_mean           =  -2.5841882178584E-04
(PID.TID 0000.0001) %MON forcing_empmr_sd             =   3.7751866267136E-03
(PID.TID 0000.0001) %MON forcing_empmr_del2           =   1.4941904774305E-04
(PID.TID 0000.0001) %MON forcing_fu_max               =   3.8752098834940E-01
(PID.TID 0000.0001) %MON forcing_fu_min               =  -3.4414445496540E-01
(PID.TID 0000.0001) %MON forcing_fu_mean              =  -3.0298485859830E-03
(PID.TID 0000.0001) %MON forcing_fu_sd                =   6.2720174339919E-02
(PID.TID 0000.0001) %MON forcing_fu_del2              =   6.2207279062400E-04
(PID.TID 0000.0001) %MON forcing_fv_max               =   3.1834166426938E-01
(PID.TID 0000.0001) %MON forcing_fv_min               =  -2.7464435591919E-01
(PID.TID 0000.0001) %MON forcing_fv_mean              =  -1.5040809511513E-02
(PID.TID 0000.0001) %MON forcing_fv_sd                =   6.2228960053310E-02
(PID.TID 0000.0001) %MON forcing_fv_del2              =   5.4095449621533E-04
(PID.TID 0000.0001) %MON trAdv_CFL_u_max              =   2.3552620974681E-03
(PID.TID 0000.0001) %MON trAdv_CFL_v_max              =   2.2078834349951E-03
(PID.TID 0000.0001) %MON trAdv_CFL_w_max              =   1.8790496843916E-03
(PID.TID 0000.0001) %MON advcfl_uvel_max              =   2.4009450951701E-03
(PID.TID 0000.0001) %MON advcfl_vvel_max              =   2.1572919291529E-03
(PID.TID 0000.0001) %MON advcfl_wvel_max              =   2.9793552730394E-03
(PID.TID 0000.0001) %MON advcfl_W_hf_max              =   1.8790496843916E-03
(PID.TID 0000.0001) %MON pe_b_mean                    =   4.9973165529770E-04
(PID.TID 0000.0001) %MON ke_max                       =   2.5927177605170E-01
(PID.TID 0000.0001) %MON ke_mean                      =   1.6683974776692E-04
(PID.TID 0000.0001) %MON ke_vol                       =   1.3398129986539E+18
(PID.TID 0000.0001) %MON vort_r_min                   =  -4.6138898368262E-06
(PID.TID 0000.0001) %MON vort_r_max                   =   2.9626997984349E-06
(PID.TID 0000.0001) %MON vort_a_mean                  =  -2.0549865324846E-05
(PID.TID 0000.0001) %MON vort_a_sd                    =   7.5259735508551E-05
(PID.TID 0000.0001) %MON vort_p_mean                  =  -2.4783273532653E-05
(PID.TID 0000.0001) %MON vort_p_sd                    =   1.2811902538131E-04
(PID.TID 0000.0001) %MON surfExpan_theta_mean         =  -7.0379201588458E-06
(PID.TID 0000.0001) %MON surfExpan_salt_mean          =   1.3439581783206E-06
(PID.TID 0000.0001) // =======================================================
(PID.TID 0000.0001) // End MONITOR dynamic field statistics
(PID.TID 0000.0001) // =======================================================
(PID.TID 0000.0001) // =======================================================
(PID.TID 0000.0001) // Begin MONITOR SEAICE statistics
(PID.TID 0000.0001) // =======================================================
(PID.TID 0000.0001) %MON seaice_tsnumber              =                 72061
(PID.TID 0000.0001) %MON seaice_time_sec              =   6.4854900000000E+07
(PID.TID 0000.0001) %MON seaice_uice_max              =   6.8769430082133E-01
(PID.TID 0000.0001) %MON seaice_uice_min              =  -5.7402359334457E-01
(PID.TID 0000.0001) %MON seaice_uice_mean             =  -4.6194242647100E-03
(PID.TID 0000.0001) %MON seaice_uice_sd               =   5.8507901543797E-02
(PID.TID 0000.0001) %MON seaice_uice_del2             =   9.6431634227494E-04
(PID.TID 0000.0001) %MON seaice_vice_max              =   6.9638271118207E-01
(PID.TID 0000.0001) %MON seaice_vice_min              =  -6.1786696151379E-01
(PID.TID 0000.0001) %MON seaice_vice_mean             =  -1.4547260128975E-02
(PID.TID 0000.0001) %MON seaice_vice_sd               =   6.4314814448076E-02
(PID.TID 0000.0001) %MON seaice_vice_del2             =   9.9480335295028E-04
(PID.TID 0000.0001) %MON seaice_area_max              =   1.0000000000000E+00
(PID.TID 0000.0001) %MON seaice_area_min              =   0.0000000000000E+00
(PID.TID 0000.0001) %MON seaice_area_mean             =   6.9061376147569E-02
(PID.TID 0000.0001) %MON seaice_area_sd               =   2.3734269798707E-01
(PID.TID 0000.0001) %MON seaice_area_del2             =   1.7419218389876E-03
(PID.TID 0000.0001) %MON seaice_heff_max              =   8.5400213765840E+00
(PID.TID 0000.0001) %MON seaice_heff_min              =   0.0000000000000E+00
(PID.TID 0000.0001) %MON seaice_heff_mean             =   2.0606109633437E-01
(PID.TID 0000.0001) %MON seaice_heff_sd               =   9.8023110675227E-01
(PID.TID 0000.0001) %MON seaice_heff_del2             =   6.2386430027651E-03
(PID.TID 0000.0001) %MON seaice_hsnow_max             =   2.0318725339923E+00
(PID.TID 0000.0001) %MON seaice_hsnow_min             =   0.0000000000000E+00
(PID.TID 0000.0001) %MON seaice_hsnow_mean            =   2.2736171008227E-02
(PID.TID 0000.0001) %MON seaice_hsnow_sd              =   1.1941527114389E-01
(PID.TID 0000.0001) %MON seaice_hsnow_del2            =   1.4615468322533E-03
(PID.TID 0000.0001) // =======================================================
(PID.TID 0000.0001) // End MONITOR SEAICE statistics
(PID.TID 0000.0001) // =======================================================
 Computing Diagnostic #    211  SIarea       Counter:       1   Parms: SM      M1      
 Computing Diagnostic #    214  SIheff       Counter:       1   Parms: SM      M1      
 Computing Diagnostic #    216  SIhsnow      Counter:       1   Parms: SM      M1      
 Computing Diagnostic #     83  sIceLoad     Counter:       1   Parms: SM      U1      
 Computing Diagnostic #    220  SIuice       Counter:       1   Parms: UU      M1      
           Vector  Mate for  SIuice       Diagnostic #    221  SIvice   exists 
 Computing Diagnostic #    221  SIvice       Counter:       1   Parms: VV      M1      
           Vector  Mate for  SIvice       Diagnostic #    220  SIuice   exists 
 Computing Diagnostic #    222  SItaux       Counter:       1   Parms: UU      U1      
           Vector  Mate for  SItaux       Diagnostic #    223  SItauy   exists 
 Computing Diagnostic #    223  SItauy       Counter:       1   Parms: VV      U1      
           Vector  Mate for  SItauy       Diagnostic #    222  SItaux   exists 
 Computing Diagnostic #      1  SDIAG1       Counter:       1   Parms: SM      L1      
 Computing Diagnostic #    282  SIareaN      Counter:       1   Parms: SM      MX      
 Computing Diagnostic #    281  SIheffN      Counter:       1   Parms: SM      MX      
 Computing Diagnostic #    283  SIhsnowN     Counter:       1   Parms: SM      MX      
 SEAICE_LSR: Residual Initial ipass,Uice,Vice=    1  3.42704081E-03  1.99104470E-03
 SEAICE_LSR (ipass=   1) iters,dU,Resid=     8  5.61842434E-05  4.04743018E-05
 SEAICE_LSR (ipass=   1) iters,dV,Resid=     8  5.99890391E-05  4.68340625E-06
 SEAICE_LSR: Residual Initial ipass,Uice,Vice=    2  2.38545769E-03  1.65213581E-03
 SEAICE_LSR (ipass=   2) iters,dU,Resid=     8  3.04804884E-05  2.55966601E-05
 SEAICE_LSR (ipass=   2) iters,dV,Resid=     8  3.43387707E-05  5.41485779E-06
 cg2d: Sum(rhs),rhsMax =  -6.91698341801668E+01  3.66400420140915E+01
(PID.TID 0000.0001)      cg2d_init_res =   3.01731469072829E-01
(PID.TID 0000.0001)      cg2d_iters(min,last) =      -1      10
(PID.TID 0000.0001)      cg2d_last_res =   8.02865895270137E-08
(PID.TID 0000.0001) // =======================================================
(PID.TID 0000.0001) // Begin MONITOR dynamic field statistics
(PID.TID 0000.0001) // =======================================================
(PID.TID 0000.0001) %MON time_tsnumber                =                 72062
(PID.TID 0000.0001) %MON time_secondsf                =   6.4855800000000E+07
(PID.TID 0000.0001) %MON dynstat_eta_max              =   1.5397615489660E+00
(PID.TID 0000.0001) %MON dynstat_eta_min              =  -1.5819071999454E+00
(PID.TID 0000.0001) %MON dynstat_eta_mean             =   2.9449225040829E-02
(PID.TID 0000.0001) %MON dynstat_eta_sd               =   6.1161026047959E-01
(PID.TID 0000.0001) %MON dynstat_eta_del2             =   1.4043198699913E-03
(PID.TID 0000.0001) %MON dynstat_uvel_max             =   7.1527791899371E-01
(PID.TID 0000.0001) %MON dynstat_uvel_min             =  -7.8396341758180E-01
(PID.TID 0000.0001) %MON dynstat_uvel_mean            =  -3.2977797281365E-04
(PID.TID 0000.0001) %MON dynstat_uvel_sd              =   1.3010682061828E-02
(PID.TID 0000.0001) %MON dynstat_uvel_del2            =   9.7427964876151E-05
(PID.TID 0000.0001) %MON dynstat_vvel_max             =   6.2731040362575E-01
(PID.TID 0000.0001) %MON dynstat_vvel_min             =  -6.5363426034419E-01
(PID.TID 0000.0001) %MON dynstat_vvel_mean            =   5.4686705672067E-04
(PID.TID 0000.0001) %MON dynstat_vvel_sd              =   1.3850442019873E-02
(PID.TID 0000.0001) %MON dynstat_vvel_del2            =   1.0147677788897E-04
(PID.TID 0000.0001) %MON dynstat_wvel_max             =   1.1514845495059E-04
(PID.TID 0000.0001) %MON dynstat_wvel_min             =  -1.9005232540038E-04
(PID.TID 0000.0001) %MON dynstat_wvel_mean            =  -3.0187340975974E-07
(PID.TID 0000.0001) %MON dynstat_wvel_sd              =   7.9795315119559E-06
(PID.TID 0000.0001) %MON dynstat_wvel_del2            =   7.4534177719802E-08
(PID.TID 0000.0001) %MON dynstat_theta_max            =   3.0924410881491E+01
(PID.TID 0000.0001) %MON dynstat_theta_min            =  -3.0069871254694E+00
(PID.TID 0000.0001) %MON dynstat_theta_mean           =   3.9091510002899E+00
(PID.TID 0000.0001) %MON dynstat_theta_sd             =   4.5714631485861E+00
(PID.TID 0000.0001) %MON dynstat_theta_del2           =   2.6413097329251E-03
(PID.TID 0000.0001) %MON dynstat_salt_max             =   4.1347950839212E+01
(PID.TID 0000.0001) %MON dynstat_salt_min             =   1.8519001492410E+01
(PID.TID 0000.0001) %MON dynstat_salt_mean            =   3.4771938909233E+01
(PID.TID 0000.0001) %MON dynstat_salt_sd              =   5.3198852425902E-01
(PID.TID 0000.0001) %MON dynstat_salt_del2            =   1.0710005141591E-03
(PID.TID 0000.0001) %MON dynstat_sst_max              =   3.0924410881491E+01
(PID.TID 0000.0001) %MON dynstat_sst_min              =  -1.9331930805334E+00
(PID.TID 0000.0001) %MON dynstat_sst_mean             =   1.8107396965180E+01
(PID.TID 0000.0001) %MON dynstat_sst_sd               =   9.8117229005063E+00
(PID.TID 0000.0001) %MON dynstat_sst_del2             =   1.5021046209717E-02
(PID.TID 0000.0001) %MON dynstat_sss_max              =   4.1347950839212E+01
(PID.TID 0000.0001) %MON dynstat_sss_min              =   1.8752057932432E+01
(PID.TID 0000.0001) %MON dynstat_sss_mean             =   3.4623426441413E+01
(PID.TID 0000.0001) %MON dynstat_sss_sd               =   1.4833707026983E+00
(PID.TID 0000.0001) %MON dynstat_sss_del2             =   1.1979570005438E-02
(PID.TID 0000.0001) %MON forcing_qnet_max             =   1.9043763427734E+03
(PID.TID 0000.0001) %MON forcing_qnet_min             =  -1.1448930664062E+03
(PID.TID 0000.0001) %MON forcing_qnet_mean            =   8.4125605799114E-01
(PID.TID 0000.0001) %MON forcing_qnet_sd              =   2.1101508500095E+02
(PID.TID 0000.0001) %MON forcing_qnet_del2            =   4.0023083865420E+00
(PID.TID 0000.0001) %MON forcing_qsw_max              =   0.0000000000000E+00
(PID.TID 0000.0001) %MON forcing_qsw_min              =  -1.0223777387987E+02
(PID.TID 0000.0001) %MON forcing_qsw_mean             =  -1.4988390198158E+01
(PID.TID 0000.0001) %MON forcing_qsw_sd               =   2.6036857657438E+01
(PID.TID 0000.0001) %MON forcing_qsw_del2             =   1.4040267546048E-01
(PID.TID 0000.0001) %MON forcing_empmr_max            =   5.8968435041606E-03
(PID.TID 0000.0001) %MON forcing_empmr_min            =  -8.4774591028690E-02
(PID.TID 0000.0001) %MON forcing_empmr_mean           =  -2.5637053990466E-04
(PID.TID 0000.0001) %MON forcing_empmr_sd             =   3.7353309607086E-03
(PID.TID 0000.0001) %MON forcing_empmr_del2           =   1.4783037118914E-04
(PID.TID 0000.0001) %MON forcing_fu_max               =   3.8849113026042E-01
(PID.TID 0000.0001) %MON forcing_fu_min               =  -3.3590786744754E-01
(PID.TID 0000.0001) %MON forcing_fu_mean              =  -3.0309427271802E-03
(PID.TID 0000.0001) %MON forcing_fu_sd                =   6.2483308738186E-02
(PID.TID 0000.0001) %MON forcing_fu_del2              =   6.1952159471271E-04
(PID.TID 0000.0001) %MON forcing_fv_max               =   3.1770909555730E-01
(PID.TID 0000.0001) %MON forcing_fv_min               =  -2.7199626497441E-01
(PID.TID 0000.0001) %MON forcing_fv_mean              =  -1.5067650220371E-02
(PID.TID 0000.0001) %MON forcing_fv_sd                =   6.2119358620747E-02
(PID.TID 0000.0001) %MON forcing_fv_del2              =   5.4067383836392E-04
(PID.TID 0000.0001) %MON trAdv_CFL_u_max              =   2.3445868030375E-03
(PID.TID 0000.0001) %MON trAdv_CFL_v_max              =   2.0991244761427E-03
(PID.TID 0000.0001) %MON trAdv_CFL_w_max              =   1.8911563213741E-03
(PID.TID 0000.0001) %MON advcfl_uvel_max              =   2.3852849375613E-03
(PID.TID 0000.0001) %MON advcfl_vvel_max              =   2.0471426712002E-03
(PID.TID 0000.0001) %MON advcfl_wvel_max              =   2.9486814270849E-03
(PID.TID 0000.0001) %MON advcfl_W_hf_max              =   1.8911563213741E-03
(PID.TID 0000.0001) %MON pe_b_mean                    =   4.9947789927413E-04
(PID.TID 0000.0001) %MON ke_max                       =   2.6317905574986E-01
(PID.TID 0000.0001) %MON ke_mean                      =   1.6695641777382E-04
(PID.TID 0000.0001) %MON ke_vol                       =   1.3398130804236E+18
(PID.TID 0000.0001) %MON vort_r_min                   =  -4.6504435432843E-06
(PID.TID 0000.0001) %MON vort_r_max                   =   2.9651179598480E-06
(PID.TID 0000.0001) %MON vort_a_mean                  =  -2.0549865324846E-05
(PID.TID 0000.0001) %MON vort_a_sd                    =   7.5259738143311E-05
(PID.TID 0000.0001) %MON vort_p_mean                  =  -2.4783271551118E-05
(PID.TID 0000.0001) %MON vort_p_sd                    =   1.2811905368316E-04
(PID.TID 0000.0001) %MON surfExpan_theta_mean         =  -6.9247987683026E-06
(PID.TID 0000.0001) %MON surfExpan_salt_mean          =   1.3448043680343E-06
(PID.TID 0000.0001) // =======================================================
(PID.TID 0000.0001) // End MONITOR dynamic field statistics
(PID.TID 0000.0001) // =======================================================
(PID.TID 0000.0001) // =======================================================
(PID.TID 0000.0001) // Begin MONITOR SEAICE statistics
(PID.TID 0000.0001) // =======================================================
(PID.TID 0000.0001) %MON seaice_tsnumber              =                 72062
(PID.TID 0000.0001) %MON seaice_time_sec              =   6.4855800000000E+07
(PID.TID 0000.0001) %MON seaice_uice_max              =   6.9744173005463E-01
(PID.TID 0000.0001) %MON seaice_uice_min              =  -5.9324871571202E-01
(PID.TID 0000.0001) %MON seaice_uice_mean             =  -4.4910764200654E-03
(PID.TID 0000.0001) %MON seaice_uice_sd               =   5.9080324769461E-02
(PID.TID 0000.0001) %MON seaice_uice_del2             =   9.6728170242656E-04
(PID.TID 0000.0001) %MON seaice_vice_max              =   6.7290199343715E-01
(PID.TID 0000.0001) %MON seaice_vice_min              =  -6.1829385592128E-01
(PID.TID 0000.0001) %MON seaice_vice_mean             =  -1.4493685232164E-02
(PID.TID 0000.0001) %MON seaice_vice_sd               =   6.4201681059828E-02
(PID.TID 0000.0001) %MON seaice_vice_del2             =   9.9729702544796E-04
(PID.TID 0000.0001) %MON seaice_area_max              =   1.0000000000000E+00
(PID.TID 0000.0001) %MON seaice_area_min              =   0.0000000000000E+00
(PID.TID 0000.0001) %MON seaice_area_mean             =   6.9054563569960E-02
(PID.TID 0000.0001) %MON seaice_area_sd               =   2.3732543404328E-01
(PID.TID 0000.0001) %MON seaice_area_del2             =   1.7411517622972E-03
(PID.TID 0000.0001) %MON seaice_heff_max              =   8.5406678212891E+00
(PID.TID 0000.0001) %MON seaice_heff_min              =   0.0000000000000E+00
(PID.TID 0000.0001) %MON seaice_heff_mean             =   2.0605534614940E-01
(PID.TID 0000.0001) %MON seaice_heff_sd               =   9.8023712971899E-01
(PID.TID 0000.0001) %MON seaice_heff_del2             =   6.2381703662181E-03
(PID.TID 0000.0001) %MON seaice_hsnow_max             =   2.0318848250014E+00
(PID.TID 0000.0001) %MON seaice_hsnow_min             =   0.0000000000000E+00
(PID.TID 0000.0001) %MON seaice_hsnow_mean            =   2.2735045184707E-02
(PID.TID 0000.0001) %MON seaice_hsnow_sd              =   1.1941103617482E-01
(PID.TID 0000.0001) %MON seaice_hsnow_del2            =   1.4614848199299E-03
(PID.TID 0000.0001) // =======================================================
(PID.TID 0000.0001) // End MONITOR SEAICE statistics
(PID.TID 0000.0001) // =======================================================
 SEAICE_LSR: Residual Initial ipass,Uice,Vice=    1  3.34693412E-03  2.06066483E-03
 SEAICE_LSR (ipass=   1) iters,dU,Resid=     8  4.92126710E-05  3.70113370E-05
 SEAICE_LSR (ipass=   1) iters,dV,Resid=     8  5.98158618E-05  3.90395825E-06
 SEAICE_LSR: Residual Initial ipass,Uice,Vice=    2  2.39853141E-03  1.69327772E-03
 SEAICE_LSR (ipass=   2) iters,dU,Resid=     8  2.64961690E-05  2.32471987E-05
 SEAICE_LSR (ipass=   2) iters,dV,Resid=     8  3.39651944E-05  4.49877158E-06
 cg2d: Sum(rhs),rhsMax =  -6.97696155990001E+01  3.65973450571628E+01
(PID.TID 0000.0001)      cg2d_init_res =   2.94935742182287E-01
(PID.TID 0000.0001)      cg2d_iters(min,last) =      -1      10
(PID.TID 0000.0001)      cg2d_last_res =   8.23590694742825E-08
(PID.TID 0000.0001) // =======================================================
(PID.TID 0000.0001) // Begin MONITOR dynamic field statistics
(PID.TID 0000.0001) // =======================================================
(PID.TID 0000.0001) %MON time_tsnumber                =                 72063
(PID.TID 0000.0001) %MON time_secondsf                =   6.4856700000000E+07
(PID.TID 0000.0001) %MON dynstat_eta_max              =   1.3657680776133E+00
(PID.TID 0000.0001) %MON dynstat_eta_min              =  -1.5801205718681E+00
(PID.TID 0000.0001) %MON dynstat_eta_mean             =   2.9669968430610E-02
(PID.TID 0000.0001) %MON dynstat_eta_sd               =   6.1149284156068E-01
(PID.TID 0000.0001) %MON dynstat_eta_del2             =   1.3765309623118E-03
(PID.TID 0000.0001) %MON dynstat_uvel_max             =   6.9984174227775E-01
(PID.TID 0000.0001) %MON dynstat_uvel_min             =  -7.9675830908656E-01
(PID.TID 0000.0001) %MON dynstat_uvel_mean            =  -3.1628494360009E-04
(PID.TID 0000.0001) %MON dynstat_uvel_sd              =   1.3042887113405E-02
(PID.TID 0000.0001) %MON dynstat_uvel_del2            =   9.6930700890211E-05
(PID.TID 0000.0001) %MON dynstat_vvel_max             =   5.8503677101783E-01
(PID.TID 0000.0001) %MON dynstat_vvel_min             =  -6.4651639852697E-01
(PID.TID 0000.0001) %MON dynstat_vvel_mean            =   5.4839937622643E-04
(PID.TID 0000.0001) %MON dynstat_vvel_sd              =   1.3823054633555E-02
(PID.TID 0000.0001) %MON dynstat_vvel_del2            =   1.0097241850616E-04
(PID.TID 0000.0001) %MON dynstat_wvel_max             =   1.1376388528920E-04
(PID.TID 0000.0001) %MON dynstat_wvel_min             =  -1.9006306579993E-04
(PID.TID 0000.0001) %MON dynstat_wvel_mean            =  -2.8296828074074E-07
(PID.TID 0000.0001) %MON dynstat_wvel_sd              =   7.9468232011347E-06
(PID.TID 0000.0001) %MON dynstat_wvel_del2            =   7.3768418162908E-08
(PID.TID 0000.0001) %MON dynstat_theta_max            =   3.0924319065115E+01
(PID.TID 0000.0001) %MON dynstat_theta_min            =  -3.0071688425897E+00
(PID.TID 0000.0001) %MON dynstat_theta_mean           =   3.9091524010289E+00
(PID.TID 0000.0001) %MON dynstat_theta_sd             =   4.5714671080966E+00
(PID.TID 0000.0001) %MON dynstat_theta_del2           =   2.6411722908247E-03
(PID.TID 0000.0001) %MON dynstat_salt_max             =   4.1347819706246E+01
(PID.TID 0000.0001) %MON dynstat_salt_min             =   1.8519011750368E+01
(PID.TID 0000.0001) %MON dynstat_salt_mean            =   3.4771936722126E+01
(PID.TID 0000.0001) %MON dynstat_salt_sd              =   5.3200262698223E-01
(PID.TID 0000.0001) %MON dynstat_salt_del2            =   1.0744076274037E-03
(PID.TID 0000.0001) %MON dynstat_sst_max              =   3.0924319065115E+01
(PID.TID 0000.0001) %MON dynstat_sst_min              =  -1.9328355235241E+00
(PID.TID 0000.0001) %MON dynstat_sst_mean             =   1.8107405398558E+01
(PID.TID 0000.0001) %MON dynstat_sst_sd               =   9.8117739411346E+00
(PID.TID 0000.0001) %MON dynstat_sst_del2             =   1.5018617209053E-02
(PID.TID 0000.0001) %MON dynstat_sss_max              =   4.1347819706246E+01
(PID.TID 0000.0001) %MON dynstat_sss_min              =   1.8752079224539E+01
(PID.TID 0000.0001) %MON dynstat_sss_mean             =   3.4623264701413E+01
(PID.TID 0000.0001) %MON dynstat_sss_sd               =   1.4837319213814E+00
(PID.TID 0000.0001) %MON dynstat_sss_del2             =   1.2027686358963E-02
(PID.TID 0000.0001) %MON forcing_qnet_max             =   1.8829798583984E+03
(PID.TID 0000.0001) %MON forcing_qnet_min             =  -1.1296077880859E+03
(PID.TID 0000.0001) %MON forcing_qnet_mean            =  -6.2375068243429E-01
(PID.TID 0000.0001) %MON forcing_qnet_sd              =   2.1413209458914E+02
(PID.TID 0000.0001) %MON forcing_qnet_del2            =   4.0535099812395E+00
(PID.TID 0000.0001) %MON forcing_qsw_max              =   0.0000000000000E+00
(PID.TID 0000.0001) %MON forcing_qsw_min              =  -1.0375031684259E+02
(PID.TID 0000.0001) %MON forcing_qsw_mean             =  -1.5089200169288E+01
(PID.TID 0000.0001) %MON forcing_qsw_sd               =   2.6345360914326E+01
(PID.TID 0000.0001) %MON forcing_qsw_del2             =   1.4028836917501E-01
(PID.TID 0000.0001) %MON forcing_empmr_max            =   5.8361282572150E-03
(PID.TID 0000.0001) %MON forcing_empmr_min            =  -8.3901099860668E-02
(PID.TID 0000.0001) %MON forcing_empmr_mean           =  -2.5385489824839E-04
(PID.TID 0000.0001) %MON forcing_empmr_sd             =   3.6968504352920E-03
(PID.TID 0000.0001) %MON forcing_empmr_del2           =   1.4631654219955E-04
(PID.TID 0000.0001) %MON forcing_fu_max               =   3.8383866784553E-01
(PID.TID 0000.0001) %MON forcing_fu_min               =  -3.2760702966103E-01
(PID.TID 0000.0001) %MON forcing_fu_mean              =  -2.9885714547689E-03
(PID.TID 0000.0001) %MON forcing_fu_sd                =   6.2310530588029E-02
(PID.TID 0000.0001) %MON forcing_fu_del2              =   6.1652050792421E-04
(PID.TID 0000.0001) %MON forcing_fv_max               =   3.1725938523502E-01
(PID.TID 0000.0001) %MON forcing_fv_min               =  -2.6954880040272E-01
(PID.TID 0000.0001) %MON forcing_fv_mean              =  -1.5087821960578E-02
(PID.TID 0000.0001) %MON forcing_fv_sd                =   6.1980571193228E-02
(PID.TID 0000.0001) %MON forcing_fv_del2              =   5.3987453078735E-04
(PID.TID 0000.0001) %MON trAdv_CFL_u_max              =   2.3265627659833E-03
(PID.TID 0000.0001) %MON trAdv_CFL_v_max              =   2.0502460936206E-03
(PID.TID 0000.0001) %MON trAdv_CFL_w_max              =   1.8981811681093E-03
(PID.TID 0000.0001) %MON advcfl_uvel_max              =   2.3338088905082E-03
(PID.TID 0000.0001) %MON advcfl_vvel_max              =   1.9091883878373E-03
(PID.TID 0000.0001) %MON advcfl_wvel_max              =   2.9182991255885E-03
(PID.TID 0000.0001) %MON advcfl_W_hf_max              =   1.8981811681093E-03
(PID.TID 0000.0001) %MON pe_b_mean                    =   4.9930393335216E-04
(PID.TID 0000.0001) %MON ke_max                       =   2.6571401024156E-01
(PID.TID 0000.0001) %MON ke_mean                      =   1.6698703934992E-04
(PID.TID 0000.0001) %MON ke_vol                       =   1.3398131615452E+18
(PID.TID 0000.0001) %MON vort_r_min                   =  -4.6689984406973E-06
(PID.TID 0000.0001) %MON vort_r_max                   =   2.9317501988477E-06
(PID.TID 0000.0001) %MON vort_a_mean                  =  -2.0549865324846E-05
(PID.TID 0000.0001) %MON vort_a_sd                    =   7.5259739930917E-05
(PID.TID 0000.0001) %MON vort_p_mean                  =  -2.4783269632382E-05
(PID.TID 0000.0001) %MON vort_p_sd                    =   1.2811908377897E-04
(PID.TID 0000.0001) %MON surfExpan_theta_mean         =  -6.8029812716444E-06
(PID.TID 0000.0001) %MON surfExpan_salt_mean          =   1.3424932345218E-06
(PID.TID 0000.0001) // =======================================================
(PID.TID 0000.0001) // End MONITOR dynamic field statistics
(PID.TID 0000.0001) // =======================================================
(PID.TID 0000.0001) // =======================================================
(PID.TID 0000.0001) // Begin MONITOR SEAICE statistics
(PID.TID 0000.0001) // =======================================================
(PID.TID 0000.0001) %MON seaice_tsnumber              =                 72063
(PID.TID 0000.0001) %MON seaice_time_sec              =   6.4856700000000E+07
(PID.TID 0000.0001) %MON seaice_uice_max              =   6.9540464548214E-01
(PID.TID 0000.0001) %MON seaice_uice_min              =  -6.1046824589238E-01
(PID.TID 0000.0001) %MON seaice_uice_mean             =  -4.3726879529018E-03
(PID.TID 0000.0001) %MON seaice_uice_sd               =   5.9618857552942E-02
(PID.TID 0000.0001) %MON seaice_uice_del2             =   9.6885479534354E-04
(PID.TID 0000.0001) %MON seaice_vice_max              =   6.3975003471302E-01
(PID.TID 0000.0001) %MON seaice_vice_min              =  -6.1553363403526E-01
(PID.TID 0000.0001) %MON seaice_vice_mean             =  -1.4439850323784E-02
(PID.TID 0000.0001) %MON seaice_vice_sd               =   6.4010955172582E-02
(PID.TID 0000.0001) %MON seaice_vice_del2             =   9.9402946412861E-04
(PID.TID 0000.0001) %MON seaice_area_max              =   1.0000000000000E+00
(PID.TID 0000.0001) %MON seaice_area_min              =   0.0000000000000E+00
(PID.TID 0000.0001) %MON seaice_area_mean             =   6.9047749536514E-02
(PID.TID 0000.0001) %MON seaice_area_sd               =   2.3730823334388E-01
(PID.TID 0000.0001) %MON seaice_area_del2             =   1.7404203776880E-03
(PID.TID 0000.0001) %MON seaice_heff_max              =   8.5412959537691E+00
(PID.TID 0000.0001) %MON seaice_heff_min              =   0.0000000000000E+00
(PID.TID 0000.0001) %MON seaice_heff_mean             =   2.0604936177593E-01
(PID.TID 0000.0001) %MON seaice_heff_sd               =   9.8024212554010E-01
(PID.TID 0000.0001) %MON seaice_heff_del2             =   6.2377127242012E-03
(PID.TID 0000.0001) %MON seaice_hsnow_max             =   2.0318954406731E+00
(PID.TID 0000.0001) %MON seaice_hsnow_min             =   0.0000000000000E+00
(PID.TID 0000.0001) %MON seaice_hsnow_mean            =   2.2733856073998E-02
(PID.TID 0000.0001) %MON seaice_hsnow_sd              =   1.1940671502473E-01
(PID.TID 0000.0001) %MON seaice_hsnow_del2            =   1.4614242731564E-03
(PID.TID 0000.0001) // =======================================================
(PID.TID 0000.0001) // End MONITOR SEAICE statistics
(PID.TID 0000.0001) // =======================================================
 SEAICE_LSR: Residual Initial ipass,Uice,Vice=    1  3.35138603E-03  2.12424919E-03
 SEAICE_LSR (ipass=   1) iters,dU,Resid=     8  4.17231003E-05  3.47252459E-05
 SEAICE_LSR (ipass=   1) iters,dV,Resid=     8  5.92412826E-05  3.76429198E-06
 SEAICE_LSR: Residual Initial ipass,Uice,Vice=    2  2.46200943E-03  1.73303276E-03
 SEAICE_LSR (ipass=   2) iters,dU,Resid=     8  2.24093655E-05  2.17194306E-05
 SEAICE_LSR (ipass=   2) iters,dV,Resid=     8  3.33300835E-05  3.93105848E-06
 cg2d: Sum(rhs),rhsMax =  -7.03729690103796E+01  3.65509417469953E+01
(PID.TID 0000.0001)      cg2d_init_res =   2.88150663621844E-01
(PID.TID 0000.0001)      cg2d_iters(min,last) =      -1      10
(PID.TID 0000.0001)      cg2d_last_res =   8.46943318797084E-08
(PID.TID 0000.0001) // =======================================================
(PID.TID 0000.0001) // Begin MONITOR dynamic field statistics
(PID.TID 0000.0001) // =======================================================
(PID.TID 0000.0001) %MON time_tsnumber                =                 72064
(PID.TID 0000.0001) %MON time_secondsf                =   6.4857600000000E+07
(PID.TID 0000.0001) %MON dynstat_eta_max              =   1.1907502474046E+00
(PID.TID 0000.0001) %MON dynstat_eta_min              =  -1.5781857033821E+00
(PID.TID 0000.0001) %MON dynstat_eta_mean             =   2.9888603141740E-02
(PID.TID 0000.0001) %MON dynstat_eta_sd               =   6.1141973426018E-01
(PID.TID 0000.0001) %MON dynstat_eta_del2             =   1.3707794969973E-03
(PID.TID 0000.0001) %MON dynstat_uvel_max             =   6.7441440609877E-01
(PID.TID 0000.0001) %MON dynstat_uvel_min             =  -8.0716840614886E-01
(PID.TID 0000.0001) %MON dynstat_uvel_mean            =  -3.0494144468413E-04
(PID.TID 0000.0001) %MON dynstat_uvel_sd              =   1.3070701835941E-02
(PID.TID 0000.0001) %MON dynstat_uvel_del2            =   9.6292250252023E-05
(PID.TID 0000.0001) %MON dynstat_vvel_max             =   5.3530633535309E-01
(PID.TID 0000.0001) %MON dynstat_vvel_min             =  -6.3595484008505E-01
(PID.TID 0000.0001) %MON dynstat_vvel_mean            =   5.4657189291444E-04
(PID.TID 0000.0001) %MON dynstat_vvel_sd              =   1.3793657089583E-02
(PID.TID 0000.0001) %MON dynstat_vvel_del2            =   9.9995821901519E-05
(PID.TID 0000.0001) %MON dynstat_wvel_max             =   1.1220565535523E-04
(PID.TID 0000.0001) %MON dynstat_wvel_min             =  -1.9007784158758E-04
(PID.TID 0000.0001) %MON dynstat_wvel_mean            =  -2.6344884631626E-07
(PID.TID 0000.0001) %MON dynstat_wvel_sd              =   7.9168741624078E-06
(PID.TID 0000.0001) %MON dynstat_wvel_del2            =   7.3021451555473E-08
(PID.TID 0000.0001) %MON dynstat_theta_max            =   3.0924221822117E+01
(PID.TID 0000.0001) %MON dynstat_theta_min            =  -3.0073482596232E+00
(PID.TID 0000.0001) %MON dynstat_theta_mean           =   3.9091539054075E+00
(PID.TID 0000.0001) %MON dynstat_theta_sd             =   4.5714714669864E+00
(PID.TID 0000.0001) %MON dynstat_theta_del2           =   2.6410364375220E-03
(PID.TID 0000.0001) %MON dynstat_salt_max             =   4.1347703482944E+01
(PID.TID 0000.0001) %MON dynstat_salt_min             =   1.8519021996257E+01
(PID.TID 0000.0001) %MON dynstat_salt_mean            =   3.4771934595167E+01
(PID.TID 0000.0001) %MON dynstat_salt_sd              =   5.3201654724727E-01
(PID.TID 0000.0001) %MON dynstat_salt_del2            =   1.0777558001064E-03
(PID.TID 0000.0001) %MON dynstat_sst_max              =   3.0924221822117E+01
(PID.TID 0000.0001) %MON dynstat_sst_min              =  -1.9324763453369E+00
(PID.TID 0000.0001) %MON dynstat_sst_mean             =   1.8107420821593E+01
(PID.TID 0000.0001) %MON dynstat_sst_sd               =   9.8118282150913E+00
(PID.TID 0000.0001) %MON dynstat_sst_del2             =   1.5016221568336E-02
(PID.TID 0000.0001) %MON dynstat_sss_max              =   4.1347703482944E+01
(PID.TID 0000.0001) %MON dynstat_sss_min              =   1.8752100006389E+01
(PID.TID 0000.0001) %MON dynstat_sss_mean             =   3.4623106746789E+01
(PID.TID 0000.0001) %MON dynstat_sss_sd               =   1.4840890216986E+00
(PID.TID 0000.0001) %MON dynstat_sss_del2             =   1.2074934942173E-02
(PID.TID 0000.0001) %MON forcing_qnet_max             =   1.8608100585938E+03
(PID.TID 0000.0001) %MON forcing_qnet_min             =  -1.1134107666016E+03
(PID.TID 0000.0001) %MON forcing_qnet_mean            =  -2.5957309433693E+00
(PID.TID 0000.0001) %MON forcing_qnet_sd              =   2.1304867970058E+02
(PID.TID 0000.0001) %MON forcing_qnet_del2            =   3.7767578619358E+00
(PID.TID 0000.0001) %MON forcing_qsw_max              =   0.0000000000000E+00
(PID.TID 0000.0001) %MON forcing_qsw_min              =  -1.0487178510065E+02
(PID.TID 0000.0001) %MON forcing_qsw_mean             =  -1.5155361924604E+01
(PID.TID 0000.0001) %MON forcing_qsw_sd               =   2.6602844125181E+01
(PID.TID 0000.0001) %MON forcing_qsw_del2             =   1.3996338591806E-01
(PID.TID 0000.0001) %MON forcing_empmr_max            =   5.7759052142501E-03
(PID.TID 0000.0001) %MON forcing_empmr_min            =  -8.3036839962006E-02
(PID.TID 0000.0001) %MON forcing_empmr_mean           =  -2.5142991779851E-04
(PID.TID 0000.0001) %MON forcing_empmr_sd             =   3.6585634131500E-03
(PID.TID 0000.0001) %MON forcing_empmr_del2           =   1.4487135433974E-04
(PID.TID 0000.0001) %MON forcing_fu_max               =   3.8425836720270E-01
(PID.TID 0000.0001) %MON forcing_fu_min               =  -3.1988740998716E-01
(PID.TID 0000.0001) %MON forcing_fu_mean              =  -2.9411395823033E-03
(PID.TID 0000.0001) %MON forcing_fu_sd                =   6.2222310663768E-02
(PID.TID 0000.0001) %MON forcing_fu_del2              =   6.1486086654406E-04
(PID.TID 0000.0001) %MON forcing_fv_max               =   3.1562434860958E-01
(PID.TID 0000.0001) %MON forcing_fv_min               =  -2.6724188243837E-01
(PID.TID 0000.0001) %MON forcing_fv_mean              =  -1.5077212230459E-02
(PID.TID 0000.0001) %MON forcing_fv_sd                =   6.1841424040706E-02
(PID.TID 0000.0001) %MON forcing_fv_del2              =   5.3899529992919E-04
(PID.TID 0000.0001) %MON trAdv_CFL_u_max              =   2.3588845280872E-03
(PID.TID 0000.0001) %MON trAdv_CFL_v_max              =   1.9843122483970E-03
(PID.TID 0000.0001) %MON trAdv_CFL_w_max              =   1.9000002886057E-03
(PID.TID 0000.0001) %MON advcfl_uvel_max              =   2.3456387773916E-03
(PID.TID 0000.0001) %MON advcfl_vvel_max              =   1.8593451306989E-03
(PID.TID 0000.0001) %MON advcfl_wvel_max              =   2.8882379117219E-03
(PID.TID 0000.0001) %MON advcfl_W_hf_max              =   1.9000002886057E-03
(PID.TID 0000.0001) %MON pe_b_mean                    =   4.9920214894388E-04
(PID.TID 0000.0001) %MON ke_max                       =   2.6668775723937E-01
(PID.TID 0000.0001) %MON ke_mean                      =   1.6693990824249E-04
(PID.TID 0000.0001) %MON ke_vol                       =   1.3398132418708E+18
(PID.TID 0000.0001) %MON vort_r_min                   =  -4.6687145023167E-06
(PID.TID 0000.0001) %MON vort_r_max                   =   2.8644553214432E-06
(PID.TID 0000.0001) %MON vort_a_mean                  =  -2.0549865324846E-05
(PID.TID 0000.0001) %MON vort_a_sd                    =   7.5259740898050E-05
(PID.TID 0000.0001) %MON vort_p_mean                  =  -2.4783267780917E-05
(PID.TID 0000.0001) %MON vort_p_sd                    =   1.2811911375467E-04
(PID.TID 0000.0001) %MON surfExpan_theta_mean         =  -6.6868909541382E-06
(PID.TID 0000.0001) %MON surfExpan_salt_mean          =   1.3378260324112E-06
(PID.TID 0000.0001) // =======================================================
(PID.TID 0000.0001) // End MONITOR dynamic field statistics
(PID.TID 0000.0001) // =======================================================
(PID.TID 0000.0001) // =======================================================
(PID.TID 0000.0001) // Begin MONITOR SEAICE statistics
(PID.TID 0000.0001) // =======================================================
(PID.TID 0000.0001) %MON seaice_tsnumber              =                 72064
(PID.TID 0000.0001) %MON seaice_time_sec              =   6.4857600000000E+07
(PID.TID 0000.0001) %MON seaice_uice_max              =   6.8214749994453E-01
(PID.TID 0000.0001) %MON seaice_uice_min              =  -6.2529883478481E-01
(PID.TID 0000.0001) %MON seaice_uice_mean             =  -4.2685473207883E-03
(PID.TID 0000.0001) %MON seaice_uice_sd               =   6.0121890170531E-02
(PID.TID 0000.0001) %MON seaice_uice_del2             =   9.6870227224449E-04
(PID.TID 0000.0001) %MON seaice_vice_max              =   5.9794862536054E-01
(PID.TID 0000.0001) %MON seaice_vice_min              =  -6.0944942100936E-01
(PID.TID 0000.0001) %MON seaice_vice_mean             =  -1.4387834357807E-02
(PID.TID 0000.0001) %MON seaice_vice_sd               =   6.3765714632633E-02
(PID.TID 0000.0001) %MON seaice_vice_del2             =   9.8545042764413E-04
(PID.TID 0000.0001) %MON seaice_area_max              =   1.0000000000000E+00
(PID.TID 0000.0001) %MON seaice_area_min              =   0.0000000000000E+00
(PID.TID 0000.0001) %MON seaice_area_mean             =   6.9040949384749E-02
(PID.TID 0000.0001) %MON seaice_area_sd               =   2.3729109910202E-01
(PID.TID 0000.0001) %MON seaice_area_del2             =   1.7397261951543E-03
(PID.TID 0000.0001) %MON seaice_heff_max              =   8.5419062861926E+00
(PID.TID 0000.0001) %MON seaice_heff_min              =   0.0000000000000E+00
(PID.TID 0000.0001) %MON seaice_heff_mean             =   2.0604315838548E-01
(PID.TID 0000.0001) %MON seaice_heff_sd               =   9.8024614981127E-01
(PID.TID 0000.0001) %MON seaice_heff_del2             =   6.2372696821468E-03
(PID.TID 0000.0001) %MON seaice_hsnow_max             =   2.0319092190154E+00
(PID.TID 0000.0001) %MON seaice_hsnow_min             =   0.0000000000000E+00
(PID.TID 0000.0001) %MON seaice_hsnow_mean            =   2.2732615070754E-02
(PID.TID 0000.0001) %MON seaice_hsnow_sd              =   1.1940235106728E-01
(PID.TID 0000.0001) %MON seaice_hsnow_del2            =   1.4613660477224E-03
(PID.TID 0000.0001) // =======================================================
(PID.TID 0000.0001) // End MONITOR SEAICE statistics
(PID.TID 0000.0001) // =======================================================
 Compute Stats, Diag. #    211  SIarea    vol(   0 ): 1.456E+15  Parms: SM      M1      
 Compute Stats, Diag. #    214  SIheff    vol(   0 ): 1.456E+15  Parms: SM      M1      
 Compute Stats, Diag. #    216  SIhsnow   vol(   0 ): 1.456E+15  Parms: SM      M1      
 Compute Stats, Diag. #     83  sIceLoad  vol(   0 ): 1.456E+15  Parms: SM      U1      
 Compute Stats, Diag. #    220  SIuice    vol(   0 ): 1.383E+15  Parms: UU      M1      
 Compute Stats, Diag. #    221  SIvice    vol(   0 ): 1.391E+15  Parms: VV      M1      
 Compute Stats, Diag. #    222  SItaux    vol(   0 ): 1.383E+15  Parms: UU      U1      
 Compute Stats, Diag. #    223  SItauy    vol(   0 ): 1.391E+15  Parms: VV      U1      
 SEAICE_LSR: Residual Initial ipass,Uice,Vice=    1  3.44789182E-03  2.20868965E-03
 SEAICE_LSR (ipass=   1) iters,dU,Resid=     8  3.32009675E-05  3.36640608E-05
 SEAICE_LSR (ipass=   1) iters,dV,Resid=     8  5.56018765E-05  3.76828988E-06
 SEAICE_LSR: Residual Initial ipass,Uice,Vice=    2  2.52636678E-03  1.76494021E-03
 SEAICE_LSR (ipass=   2) iters,dU,Resid=     8  1.74120544E-05  2.09118296E-05
 SEAICE_LSR (ipass=   2) iters,dV,Resid=     8  3.10704028E-05  3.62372478E-06
 cg2d: Sum(rhs),rhsMax =  -7.09773804689372E+01  3.65017772955674E+01
(PID.TID 0000.0001)      cg2d_init_res =   2.80272171561018E-01
(PID.TID 0000.0001)      cg2d_iters(min,last) =      -1      10
(PID.TID 0000.0001)      cg2d_last_res =   8.37811204474860E-08
(PID.TID 0000.0001) // =======================================================
(PID.TID 0000.0001) // Begin MONITOR dynamic field statistics
(PID.TID 0000.0001) // =======================================================
(PID.TID 0000.0001) %MON time_tsnumber                =                 72065
(PID.TID 0000.0001) %MON time_secondsf                =   6.4858500000000E+07
(PID.TID 0000.0001) %MON dynstat_eta_max              =   1.0484195330239E+00
(PID.TID 0000.0001) %MON dynstat_eta_min              =  -1.5761378551546E+00
(PID.TID 0000.0001) %MON dynstat_eta_mean             =   3.0104758751354E-02
(PID.TID 0000.0001) %MON dynstat_eta_sd               =   6.1138659092118E-01
(PID.TID 0000.0001) %MON dynstat_eta_del2             =   1.3856016500981E-03
(PID.TID 0000.0001) %MON dynstat_uvel_max             =   6.3989834410988E-01
(PID.TID 0000.0001) %MON dynstat_uvel_min             =  -8.1494197399473E-01
(PID.TID 0000.0001) %MON dynstat_uvel_mean            =  -2.9586708670880E-04
(PID.TID 0000.0001) %MON dynstat_uvel_sd              =   1.3093535906005E-02
(PID.TID 0000.0001) %MON dynstat_uvel_del2            =   9.5530503337918E-05
(PID.TID 0000.0001) %MON dynstat_vvel_max             =   4.7924254370479E-01
(PID.TID 0000.0001) %MON dynstat_vvel_min             =  -6.2199274343326E-01
(PID.TID 0000.0001) %MON dynstat_vvel_mean            =   5.4163681679122E-04
(PID.TID 0000.0001) %MON dynstat_vvel_sd              =   1.3763635917597E-02
(PID.TID 0000.0001) %MON dynstat_vvel_del2            =   9.8605971271317E-05
(PID.TID 0000.0001) %MON dynstat_wvel_max             =   1.1047064801605E-04
(PID.TID 0000.0001) %MON dynstat_wvel_min             =  -1.9009563199596E-04
(PID.TID 0000.0001) %MON dynstat_wvel_mean            =  -2.4433983774770E-07
(PID.TID 0000.0001) %MON dynstat_wvel_sd              =   7.8899629133218E-06
(PID.TID 0000.0001) %MON dynstat_wvel_del2            =   7.2316335896604E-08
(PID.TID 0000.0001) %MON dynstat_theta_max            =   3.0924117800002E+01
(PID.TID 0000.0001) %MON dynstat_theta_min            =  -3.0075297550170E+00
(PID.TID 0000.0001) %MON dynstat_theta_mean           =   3.9091555566388E+00
(PID.TID 0000.0001) %MON dynstat_theta_sd             =   4.5714764163031E+00
(PID.TID 0000.0001) %MON dynstat_theta_del2           =   2.6409099379052E-03
(PID.TID 0000.0001) %MON dynstat_salt_max             =   4.1347601050707E+01
(PID.TID 0000.0001) %MON dynstat_salt_min             =   1.8519032227749E+01
(PID.TID 0000.0001) %MON dynstat_salt_mean            =   3.4771932505965E+01
(PID.TID 0000.0001) %MON dynstat_salt_sd              =   5.3203027563747E-01
(PID.TID 0000.0001) %MON dynstat_salt_del2            =   1.0810400845399E-03
(PID.TID 0000.0001) %MON dynstat_sst_max              =   3.0924117800002E+01
(PID.TID 0000.0001) %MON dynstat_sst_min              =  -1.9321166061211E+00
(PID.TID 0000.0001) %MON dynstat_sst_mean             =   1.8107444617946E+01
(PID.TID 0000.0001) %MON dynstat_sst_sd               =   9.8118874040332E+00
(PID.TID 0000.0001) %MON dynstat_sst_del2             =   1.5014023200641E-02
(PID.TID 0000.0001) %MON dynstat_sss_max              =   4.1347601050707E+01
(PID.TID 0000.0001) %MON dynstat_sss_min              =   1.8752120259346E+01
(PID.TID 0000.0001) %MON dynstat_sss_mean             =   3.4622950295544E+01
(PID.TID 0000.0001) %MON dynstat_sss_sd               =   1.4844412257572E+00
(PID.TID 0000.0001) %MON dynstat_sss_del2             =   1.2121240964009E-02
(PID.TID 0000.0001) %MON forcing_qnet_max             =   1.8389096679688E+03
(PID.TID 0000.0001) %MON forcing_qnet_min             =  -1.0974271240234E+03
(PID.TID 0000.0001) %MON forcing_qnet_mean            =  -5.3088242405547E+00
(PID.TID 0000.0001) %MON forcing_qnet_sd              =   2.1480492348724E+02
(PID.TID 0000.0001) %MON forcing_qnet_del2            =   3.7818633059723E+00
(PID.TID 0000.0001) %MON forcing_qsw_max              =   0.0000000000000E+00
(PID.TID 0000.0001) %MON forcing_qsw_min              =  -1.0663505845555E+02
(PID.TID 0000.0001) %MON forcing_qsw_mean             =  -1.5390984542897E+01
(PID.TID 0000.0001) %MON forcing_qsw_sd               =   2.7173224449073E+01
(PID.TID 0000.0001) %MON forcing_qsw_del2             =   1.3930834751774E-01
(PID.TID 0000.0001) %MON forcing_empmr_max            =   5.7164696045220E-03
(PID.TID 0000.0001) %MON forcing_empmr_min            =  -8.2181803882122E-02
(PID.TID 0000.0001) %MON forcing_empmr_mean           =  -2.4857895105655E-04
(PID.TID 0000.0001) %MON forcing_empmr_sd             =   3.6208902619719E-03
(PID.TID 0000.0001) %MON forcing_empmr_del2           =   1.4336909773099E-04
(PID.TID 0000.0001) %MON forcing_fu_max               =   3.7577536072838E-01
(PID.TID 0000.0001) %MON forcing_fu_min               =  -3.4579726207137E-01
(PID.TID 0000.0001) %MON forcing_fu_mean              =  -3.0037893745627E-03
(PID.TID 0000.0001) %MON forcing_fu_sd                =   6.2357253179014E-02
(PID.TID 0000.0001) %MON forcing_fu_del2              =   6.1643133906730E-04
(PID.TID 0000.0001) %MON forcing_fv_max               =   3.1484596885258E-01
(PID.TID 0000.0001) %MON forcing_fv_min               =  -2.6502682361256E-01
(PID.TID 0000.0001) %MON forcing_fv_mean              =  -1.5055079799715E-02
(PID.TID 0000.0001) %MON forcing_fv_sd                =   6.1659265186691E-02
(PID.TID 0000.0001) %MON forcing_fv_del2              =   5.3763596020678E-04
(PID.TID 0000.0001) %MON trAdv_CFL_u_max              =   2.3836870197508E-03
(PID.TID 0000.0001) %MON trAdv_CFL_v_max              =   1.8813788058742E-03
(PID.TID 0000.0001) %MON trAdv_CFL_w_max              =   1.8965651257672E-03
(PID.TID 0000.0001) %MON advcfl_uvel_max              =   2.3682288367138E-03
(PID.TID 0000.0001) %MON advcfl_vvel_max              =   1.8185240616740E-03
(PID.TID 0000.0001) %MON advcfl_wvel_max              =   2.8584975263347E-03
(PID.TID 0000.0001) %MON advcfl_W_hf_max              =   1.8965651257672E-03
(PID.TID 0000.0001) %MON pe_b_mean                    =   4.9916540460910E-04
(PID.TID 0000.0001) %MON ke_max                       =   2.6593578299145E-01
(PID.TID 0000.0001) %MON ke_mean                      =   1.6682556725566E-04
(PID.TID 0000.0001) %MON ke_vol                       =   1.3398133214290E+18
(PID.TID 0000.0001) %MON vort_r_min                   =  -4.6489143010363E-06
(PID.TID 0000.0001) %MON vort_r_max                   =   2.7654789050062E-06
(PID.TID 0000.0001) %MON vort_a_mean                  =  -2.0549865324846E-05
(PID.TID 0000.0001) %MON vort_a_sd                    =   7.5259741082703E-05
(PID.TID 0000.0001) %MON vort_p_mean                  =  -2.4783265994816E-05
(PID.TID 0000.0001) %MON vort_p_sd                    =   1.2811914183460E-04
(PID.TID 0000.0001) %MON surfExpan_theta_mean         =  -6.5714698501290E-06
(PID.TID 0000.0001) %MON surfExpan_salt_mean          =   1.3304590831142E-06
(PID.TID 0000.0001) // =======================================================
(PID.TID 0000.0001) // End MONITOR dynamic field statistics
(PID.TID 0000.0001) // =======================================================
(PID.TID 0000.0001) // =======================================================
(PID.TID 0000.0001) // Begin MONITOR SEAICE statistics
(PID.TID 0000.0001) // =======================================================
(PID.TID 0000.0001) %MON seaice_tsnumber              =                 72065
(PID.TID 0000.0001) %MON seaice_time_sec              =   6.4858500000000E+07
(PID.TID 0000.0001) %MON seaice_uice_max              =   6.5842934917782E-01
(PID.TID 0000.0001) %MON seaice_uice_min              =  -6.3737193071931E-01
(PID.TID 0000.0001) %MON seaice_uice_mean             =  -4.1792733360697E-03
(PID.TID 0000.0001) %MON seaice_uice_sd               =   6.0583758673997E-02
(PID.TID 0000.0001) %MON seaice_uice_del2             =   9.6704706099684E-04
(PID.TID 0000.0001) %MON seaice_vice_max              =   5.4860394533415E-01
(PID.TID 0000.0001) %MON seaice_vice_min              =  -6.0000622185343E-01
(PID.TID 0000.0001) %MON seaice_vice_mean             =  -1.4322645063019E-02
(PID.TID 0000.0001) %MON seaice_vice_sd               =   6.3479681874159E-02
(PID.TID 0000.0001) %MON seaice_vice_del2             =   9.7175993795709E-04
(PID.TID 0000.0001) %MON seaice_area_max              =   1.0000000000000E+00
(PID.TID 0000.0001) %MON seaice_area_min              =   0.0000000000000E+00
(PID.TID 0000.0001) %MON seaice_area_mean             =   6.9034212838326E-02
(PID.TID 0000.0001) %MON seaice_area_sd               =   2.3727405631223E-01
(PID.TID 0000.0001) %MON seaice_area_del2             =   1.7390786111991E-03
(PID.TID 0000.0001) %MON seaice_heff_max              =   8.5424988174539E+00
(PID.TID 0000.0001) %MON seaice_heff_min              =   0.0000000000000E+00
(PID.TID 0000.0001) %MON seaice_heff_mean             =   2.0603674194302E-01
(PID.TID 0000.0001) %MON seaice_heff_sd               =   9.8024921079322E-01
(PID.TID 0000.0001) %MON seaice_heff_del2             =   6.2368405278665E-03
(PID.TID 0000.0001) %MON seaice_hsnow_max             =   2.0319209590046E+00
(PID.TID 0000.0001) %MON seaice_hsnow_min             =   0.0000000000000E+00
(PID.TID 0000.0001) %MON seaice_hsnow_mean            =   2.2731270872640E-02
(PID.TID 0000.0001) %MON seaice_hsnow_sd              =   1.1939789460282E-01
(PID.TID 0000.0001) %MON seaice_hsnow_del2            =   1.4613103415627E-03
(PID.TID 0000.0001) // =======================================================
(PID.TID 0000.0001) // End MONITOR SEAICE statistics
(PID.TID 0000.0001) // =======================================================
 Computing Diagnostic #    211  SIarea       Counter:       1   Parms: SM      M1      
 Computing Diagnostic #    214  SIheff       Counter:       1   Parms: SM      M1      
 Computing Diagnostic #    216  SIhsnow      Counter:       1   Parms: SM      M1      
 Computing Diagnostic #     83  sIceLoad     Counter:       1   Parms: SM      U1      
 Computing Diagnostic #    220  SIuice       Counter:       1   Parms: UU      M1      
           Vector  Mate for  SIuice       Diagnostic #    221  SIvice   exists 
 Computing Diagnostic #    221  SIvice       Counter:       1   Parms: VV      M1      
           Vector  Mate for  SIvice       Diagnostic #    220  SIuice   exists 
 Computing Diagnostic #    222  SItaux       Counter:       1   Parms: UU      U1      
           Vector  Mate for  SItaux       Diagnostic #    223  SItauy   exists 
 Computing Diagnostic #    223  SItauy       Counter:       1   Parms: VV      U1      
           Vector  Mate for  SItauy       Diagnostic #    222  SItaux   exists 
 Computing Diagnostic #      1  SDIAG1       Counter:       1   Parms: SM      L1      
 Computing Diagnostic #    282  SIareaN      Counter:       1   Parms: SM      MX      
 Computing Diagnostic #    281  SIheffN      Counter:       1   Parms: SM      MX      
 Computing Diagnostic #    283  SIhsnowN     Counter:       1   Parms: SM      MX      
 SEAICE_LSR: Residual Initial ipass,Uice,Vice=    1  3.52667346E-03  2.31976671E-03
 SEAICE_LSR (ipass=   1) iters,dU,Resid=     8  3.37731828E-05  3.43012868E-05
 SEAICE_LSR (ipass=   1) iters,dV,Resid=     8  5.47005481E-05  3.99984797E-06
 SEAICE_LSR: Residual Initial ipass,Uice,Vice=    2  2.56527390E-03  1.85431289E-03
 SEAICE_LSR (ipass=   2) iters,dU,Resid=     8  1.70282621E-05  2.11980193E-05
 SEAICE_LSR (ipass=   2) iters,dV,Resid=     8  2.99339322E-05  3.29112365E-06
 cg2d: Sum(rhs),rhsMax =  -7.15836891670551E+01  3.64510221403183E+01
(PID.TID 0000.0001)      cg2d_init_res =   2.70975656642055E-01
(PID.TID 0000.0001)      cg2d_iters(min,last) =      -1      10
(PID.TID 0000.0001)      cg2d_last_res =   7.58465482793249E-08
(PID.TID 0000.0001) // =======================================================
(PID.TID 0000.0001) // Begin MONITOR dynamic field statistics
(PID.TID 0000.0001) // =======================================================
(PID.TID 0000.0001) %MON time_tsnumber                =                 72066
(PID.TID 0000.0001) %MON time_secondsf                =   6.4859400000000E+07
(PID.TID 0000.0001) %MON dynstat_eta_max              =   1.0480711362873E+00
(PID.TID 0000.0001) %MON dynstat_eta_min              =  -1.5740219454851E+00
(PID.TID 0000.0001) %MON dynstat_eta_mean             =   3.0319704265368E-02
(PID.TID 0000.0001) %MON dynstat_eta_sd               =   6.1138889573043E-01
(PID.TID 0000.0001) %MON dynstat_eta_del2             =   1.4171891690875E-03
(PID.TID 0000.0001) %MON dynstat_uvel_max             =   5.9732047436573E-01
(PID.TID 0000.0001) %MON dynstat_uvel_min             =  -8.1985485603594E-01
(PID.TID 0000.0001) %MON dynstat_uvel_mean            =  -2.8905565509747E-04
(PID.TID 0000.0001) %MON dynstat_uvel_sd              =   1.3111091312501E-02
(PID.TID 0000.0001) %MON dynstat_uvel_del2            =   9.4666781876258E-05
(PID.TID 0000.0001) %MON dynstat_vvel_max             =   4.1800511141142E-01
(PID.TID 0000.0001) %MON dynstat_vvel_min             =  -6.0469975175554E-01
(PID.TID 0000.0001) %MON dynstat_vvel_mean            =   5.3388321406614E-04
(PID.TID 0000.0001) %MON dynstat_vvel_sd              =   1.3734203112759E-02
(PID.TID 0000.0001) %MON dynstat_vvel_del2            =   9.6884035567570E-05
(PID.TID 0000.0001) %MON dynstat_wvel_max             =   1.0855760704908E-04
(PID.TID 0000.0001) %MON dynstat_wvel_min             =  -1.9011934219614E-04
(PID.TID 0000.0001) %MON dynstat_wvel_mean            =  -2.2741041862805E-07
(PID.TID 0000.0001) %MON dynstat_wvel_sd              =   7.8640541835491E-06
(PID.TID 0000.0001) %MON dynstat_wvel_del2            =   7.1662847936778E-08
(PID.TID 0000.0001) %MON dynstat_theta_max            =   3.0924008013157E+01
(PID.TID 0000.0001) %MON dynstat_theta_min            =  -3.0077181402202E+00
(PID.TID 0000.0001) %MON dynstat_theta_mean           =   3.9091573164014E+00
(PID.TID 0000.0001) %MON dynstat_theta_sd             =   4.5714817984928E+00
(PID.TID 0000.0001) %MON dynstat_theta_del2           =   2.6407858907171E-03
(PID.TID 0000.0001) %MON dynstat_salt_max             =   4.1347510978466E+01
(PID.TID 0000.0001) %MON dynstat_salt_min             =   1.8519042442774E+01
(PID.TID 0000.0001) %MON dynstat_salt_mean            =   3.4771930444666E+01
(PID.TID 0000.0001) %MON dynstat_salt_sd              =   5.3204381441583E-01
(PID.TID 0000.0001) %MON dynstat_salt_del2            =   1.0842610409089E-03
(PID.TID 0000.0001) %MON dynstat_sst_max              =   3.0924008013157E+01
(PID.TID 0000.0001) %MON dynstat_sst_min              =  -1.9317561989735E+00
(PID.TID 0000.0001) %MON dynstat_sst_mean             =   1.8107476569885E+01
(PID.TID 0000.0001) %MON dynstat_sst_sd               =   9.8119513572892E+00
(PID.TID 0000.0001) %MON dynstat_sst_del2             =   1.5011904659728E-02
(PID.TID 0000.0001) %MON dynstat_sss_max              =   4.1347510978466E+01
(PID.TID 0000.0001) %MON dynstat_sss_min              =   1.8752139982323E+01
(PID.TID 0000.0001) %MON dynstat_sss_mean             =   3.4622795930510E+01
(PID.TID 0000.0001) %MON dynstat_sss_sd               =   1.4847890065807E+00
(PID.TID 0000.0001) %MON dynstat_sss_del2             =   1.2166626274951E-02
(PID.TID 0000.0001) %MON forcing_qnet_max             =   1.8172755126953E+03
(PID.TID 0000.0001) %MON forcing_qnet_min             =  -1.0827366943359E+03
(PID.TID 0000.0001) %MON forcing_qnet_mean            =  -7.1489442107347E+00
(PID.TID 0000.0001) %MON forcing_qnet_sd              =   2.1591548191591E+02
(PID.TID 0000.0001) %MON forcing_qnet_del2            =   3.7560331122330E+00
(PID.TID 0000.0001) %MON forcing_qsw_max              =   0.0000000000000E+00
(PID.TID 0000.0001) %MON forcing_qsw_min              =  -1.0705014501865E+02
(PID.TID 0000.0001) %MON forcing_qsw_mean             =  -1.5545005895265E+01
(PID.TID 0000.0001) %MON forcing_qsw_sd               =   2.7421343961034E+01
(PID.TID 0000.0001) %MON forcing_qsw_del2             =   1.3966871423662E-01
(PID.TID 0000.0001) %MON forcing_empmr_max            =   5.6575257331133E-03
(PID.TID 0000.0001) %MON forcing_empmr_min            =  -8.1335172057152E-02
(PID.TID 0000.0001) %MON forcing_empmr_mean           =  -2.4718734111570E-04
(PID.TID 0000.0001) %MON forcing_empmr_sd             =   3.5837888398810E-03
(PID.TID 0000.0001) %MON forcing_empmr_del2           =   1.4189850912165E-04
(PID.TID 0000.0001) %MON forcing_fu_max               =   3.6893195818372E-01
(PID.TID 0000.0001) %MON forcing_fu_min               =  -3.7470821070071E-01
(PID.TID 0000.0001) %MON forcing_fu_mean              =  -3.0998316371098E-03
(PID.TID 0000.0001) %MON forcing_fu_sd                =   6.2475526823119E-02
(PID.TID 0000.0001) %MON forcing_fu_del2              =   6.1765093321230E-04
(PID.TID 0000.0001) %MON forcing_fv_max               =   3.1088785357588E-01
(PID.TID 0000.0001) %MON forcing_fv_min               =  -2.6295565585494E-01
(PID.TID 0000.0001) %MON forcing_fv_mean              =  -1.5004731262746E-02
(PID.TID 0000.0001) %MON forcing_fv_sd                =   6.1538183643463E-02
(PID.TID 0000.0001) %MON forcing_fv_del2              =   5.3668705978694E-04
(PID.TID 0000.0001) %MON trAdv_CFL_u_max              =   2.4002757016711E-03
(PID.TID 0000.0001) %MON trAdv_CFL_v_max              =   1.7761615378333E-03
(PID.TID 0000.0001) %MON trAdv_CFL_w_max              =   1.8878607234890E-03
(PID.TID 0000.0001) %MON advcfl_uvel_max              =   2.3825057168999E-03
(PID.TID 0000.0001) %MON advcfl_vvel_max              =   1.7679644340959E-03
(PID.TID 0000.0001) %MON advcfl_wvel_max              =   2.8290494628575E-03
(PID.TID 0000.0001) %MON advcfl_W_hf_max              =   1.8878607234890E-03
(PID.TID 0000.0001) %MON pe_b_mean                    =   4.9918643195384E-04
(PID.TID 0000.0001) %MON ke_max                       =   2.6333091223945E-01
(PID.TID 0000.0001) %MON ke_mean                      =   1.6665573751509E-04
(PID.TID 0000.0001) %MON ke_vol                       =   1.3398134000852E+18
(PID.TID 0000.0001) %MON vort_r_min                   =  -4.6090952590714E-06
(PID.TID 0000.0001) %MON vort_r_max                   =   2.6374186634631E-06
(PID.TID 0000.0001) %MON vort_a_mean                  =  -2.0549865324846E-05
(PID.TID 0000.0001) %MON vort_a_sd                    =   7.5259740534351E-05
(PID.TID 0000.0001) %MON vort_p_mean                  =  -2.4783264269128E-05
(PID.TID 0000.0001) %MON vort_p_sd                    =   1.2811916663947E-04
(PID.TID 0000.0001) %MON surfExpan_theta_mean         =  -6.4960077748237E-06
(PID.TID 0000.0001) %MON surfExpan_salt_mean          =   1.3210307753727E-06
(PID.TID 0000.0001) // =======================================================
(PID.TID 0000.0001) // End MONITOR dynamic field statistics
(PID.TID 0000.0001) // =======================================================
(PID.TID 0000.0001) // =======================================================
(PID.TID 0000.0001) // Begin MONITOR SEAICE statistics
(PID.TID 0000.0001) // =======================================================
(PID.TID 0000.0001) %MON seaice_tsnumber              =                 72066
(PID.TID 0000.0001) %MON seaice_time_sec              =   6.4859400000000E+07
(PID.TID 0000.0001) %MON seaice_uice_max              =   6.2518257161696E-01
(PID.TID 0000.0001) %MON seaice_uice_min              =  -6.4649706643005E-01
(PID.TID 0000.0001) %MON seaice_uice_mean             =  -4.1284367298842E-03
(PID.TID 0000.0001) %MON seaice_uice_sd               =   6.1005586645504E-02
(PID.TID 0000.0001) %MON seaice_uice_del2             =   9.6327400157943E-04
(PID.TID 0000.0001) %MON seaice_vice_max              =   4.9286972231016E-01
(PID.TID 0000.0001) %MON seaice_vice_min              =  -5.8729505990780E-01
(PID.TID 0000.0001) %MON seaice_vice_mean             =  -1.4254368093055E-02
(PID.TID 0000.0001) %MON seaice_vice_sd               =   6.3163893180435E-02
(PID.TID 0000.0001) %MON seaice_vice_del2             =   9.5370782763757E-04
(PID.TID 0000.0001) %MON seaice_area_max              =   1.0000000000000E+00
(PID.TID 0000.0001) %MON seaice_area_min              =   0.0000000000000E+00
(PID.TID 0000.0001) %MON seaice_area_mean             =   6.9027464512837E-02
(PID.TID 0000.0001) %MON seaice_area_sd               =   2.3725704728092E-01
(PID.TID 0000.0001) %MON seaice_area_del2             =   1.7384654966365E-03
(PID.TID 0000.0001) %MON seaice_heff_max              =   8.5430747785099E+00
(PID.TID 0000.0001) %MON seaice_heff_min              =   0.0000000000000E+00
(PID.TID 0000.0001) %MON seaice_heff_mean             =   2.0603010711847E-01
(PID.TID 0000.0001) %MON seaice_heff_sd               =   9.8025134013618E-01
(PID.TID 0000.0001) %MON seaice_heff_del2             =   6.2364234867485E-03
(PID.TID 0000.0001) %MON seaice_hsnow_max             =   2.0319351006325E+00
(PID.TID 0000.0001) %MON seaice_hsnow_min             =   0.0000000000000E+00
(PID.TID 0000.0001) %MON seaice_hsnow_mean            =   2.2729846963131E-02
(PID.TID 0000.0001) %MON seaice_hsnow_sd              =   1.1939336576058E-01
(PID.TID 0000.0001) %MON seaice_hsnow_del2            =   1.4612561742789E-03
(PID.TID 0000.0001) // =======================================================
(PID.TID 0000.0001) // End MONITOR SEAICE statistics
(PID.TID 0000.0001) // =======================================================
 SEAICE_LSR: Residual Initial ipass,Uice,Vice=    1  3.55906390E-03  2.45680474E-03
 SEAICE_LSR (ipass=   1) iters,dU,Resid=     8  3.37090842E-05  3.38832722E-05
 SEAICE_LSR (ipass=   1) iters,dV,Resid=     8  5.27477334E-05  4.43333543E-06
 SEAICE_LSR: Residual Initial ipass,Uice,Vice=    2  2.59712413E-03  1.97208226E-03
 SEAICE_LSR (ipass=   2) iters,dU,Resid=     6  5.05112656E-05  4.33937872E-05
 SEAICE_LSR (ipass=   2) iters,dV,Resid=     6  9.77865425E-05  8.65212310E-06
 cg2d: Sum(rhs),rhsMax =  -7.21884392914609E+01  3.63999600361000E+01
(PID.TID 0000.0001)      cg2d_init_res =   2.60422772335176E-01
(PID.TID 0000.0001)      cg2d_iters(min,last) =      -1      10
(PID.TID 0000.0001)      cg2d_last_res =   5.57733988007187E-08
(PID.TID 0000.0001) // =======================================================
(PID.TID 0000.0001) // Begin MONITOR dynamic field statistics
(PID.TID 0000.0001) // =======================================================
(PID.TID 0000.0001) %MON time_tsnumber                =                 72067
(PID.TID 0000.0001) %MON time_secondsf                =   6.4860300000000E+07
(PID.TID 0000.0001) %MON dynstat_eta_max              =   1.0462575981007E+00
(PID.TID 0000.0001) %MON dynstat_eta_min              =  -1.5718881571252E+00
(PID.TID 0000.0001) %MON dynstat_eta_mean             =   3.0533017917148E-02
(PID.TID 0000.0001) %MON dynstat_eta_sd               =   6.1142042338771E-01
(PID.TID 0000.0001) %MON dynstat_eta_del2             =   1.4603090389045E-03
(PID.TID 0000.0001) %MON dynstat_uvel_max             =   5.5303353305704E-01
(PID.TID 0000.0001) %MON dynstat_uvel_min             =  -8.2171573491227E-01
(PID.TID 0000.0001) %MON dynstat_uvel_mean            =  -2.8442627416011E-04
(PID.TID 0000.0001) %MON dynstat_uvel_sd              =   1.3123257848974E-02
(PID.TID 0000.0001) %MON dynstat_uvel_del2            =   9.3724508159850E-05
(PID.TID 0000.0001) %MON dynstat_vvel_max             =   3.6571764140384E-01
(PID.TID 0000.0001) %MON dynstat_vvel_min             =  -5.8417240778370E-01
(PID.TID 0000.0001) %MON dynstat_vvel_mean            =   5.2358778728743E-04
(PID.TID 0000.0001) %MON dynstat_vvel_sd              =   1.3706530886663E-02
(PID.TID 0000.0001) %MON dynstat_vvel_del2            =   9.4930717996484E-05
(PID.TID 0000.0001) %MON dynstat_wvel_max             =   1.0646638639618E-04
(PID.TID 0000.0001) %MON dynstat_wvel_min             =  -1.9013758989728E-04
(PID.TID 0000.0001) %MON dynstat_wvel_mean            =  -2.1212672709860E-07
(PID.TID 0000.0001) %MON dynstat_wvel_sd              =   7.8402451074853E-06
(PID.TID 0000.0001) %MON dynstat_wvel_del2            =   7.1074984272270E-08
(PID.TID 0000.0001) %MON dynstat_theta_max            =   3.0923891094841E+01
(PID.TID 0000.0001) %MON dynstat_theta_min            =  -3.0079181823775E+00
(PID.TID 0000.0001) %MON dynstat_theta_mean           =   3.9091591555540E+00
(PID.TID 0000.0001) %MON dynstat_theta_sd             =   4.5714874964884E+00
(PID.TID 0000.0001) %MON dynstat_theta_del2           =   2.6406667477167E-03
(PID.TID 0000.0001) %MON dynstat_salt_max             =   4.1347432150353E+01
(PID.TID 0000.0001) %MON dynstat_salt_min             =   1.8519052639332E+01
(PID.TID 0000.0001) %MON dynstat_salt_mean            =   3.4771928412701E+01
(PID.TID 0000.0001) %MON dynstat_salt_sd              =   5.3205716698545E-01
(PID.TID 0000.0001) %MON dynstat_salt_del2            =   1.0874190838221E-03
(PID.TID 0000.0001) %MON dynstat_sst_max              =   3.0923891094841E+01
(PID.TID 0000.0001) %MON dynstat_sst_min              =  -1.9313961622318E+00
(PID.TID 0000.0001) %MON dynstat_sst_mean             =   1.8107513569256E+01
(PID.TID 0000.0001) %MON dynstat_sst_sd               =   9.8120187966695E+00
(PID.TID 0000.0001) %MON dynstat_sst_del2             =   1.5009912547800E-02
(PID.TID 0000.0001) %MON dynstat_sss_max              =   4.1347432150353E+01
(PID.TID 0000.0001) %MON dynstat_sss_min              =   1.8752159273556E+01
(PID.TID 0000.0001) %MON dynstat_sss_mean             =   3.4622643315925E+01
(PID.TID 0000.0001) %MON dynstat_sss_sd               =   1.4851321824012E+00
(PID.TID 0000.0001) %MON dynstat_sss_del2             =   1.2211094828923E-02
(PID.TID 0000.0001) %MON forcing_qnet_max             =   1.7959044189453E+03
(PID.TID 0000.0001) %MON forcing_qnet_min             =  -1.0682341308594E+03
(PID.TID 0000.0001) %MON forcing_qnet_mean            =  -8.5822015642638E+00
(PID.TID 0000.0001) %MON forcing_qnet_sd              =   2.1685693477941E+02
(PID.TID 0000.0001) %MON forcing_qnet_del2            =   3.6901268955185E+00
(PID.TID 0000.0001) %MON forcing_qsw_max              =   0.0000000000000E+00
(PID.TID 0000.0001) %MON forcing_qsw_min              =  -1.0771856623777E+02
(PID.TID 0000.0001) %MON forcing_qsw_mean             =  -1.5669354307219E+01
(PID.TID 0000.0001) %MON forcing_qsw_sd               =   2.7602971209393E+01
(PID.TID 0000.0001) %MON forcing_qsw_del2             =   1.3986080902833E-01
(PID.TID 0000.0001) %MON forcing_empmr_max            =   5.5992705747485E-03
(PID.TID 0000.0001) %MON forcing_empmr_min            =  -8.0497764050961E-02
(PID.TID 0000.0001) %MON forcing_empmr_mean           =  -2.4531069954769E-04
(PID.TID 0000.0001) %MON forcing_empmr_sd             =   3.5472999233983E-03
(PID.TID 0000.0001) %MON forcing_empmr_del2           =   1.4044149346501E-04
(PID.TID 0000.0001) %MON forcing_fu_max               =   3.6651582422149E-01
(PID.TID 0000.0001) %MON forcing_fu_min               =  -3.7477105092594E-01
(PID.TID 0000.0001) %MON forcing_fu_mean              =  -3.1337964630235E-03
(PID.TID 0000.0001) %MON forcing_fu_sd                =   6.2349631290018E-02
(PID.TID 0000.0001) %MON forcing_fu_del2              =   6.1642127295091E-04
(PID.TID 0000.0001) %MON forcing_fv_max               =   3.0885022234059E-01
(PID.TID 0000.0001) %MON forcing_fv_min               =  -2.6124264099266E-01
(PID.TID 0000.0001) %MON forcing_fv_mean              =  -1.4982239046507E-02
(PID.TID 0000.0001) %MON forcing_fv_sd                =   6.1374480813242E-02
(PID.TID 0000.0001) %MON forcing_fv_del2              =   5.3580060042897E-04
(PID.TID 0000.0001) %MON trAdv_CFL_u_max              =   2.4080431110727E-03
(PID.TID 0000.0001) %MON trAdv_CFL_v_max              =   1.7181418761583E-03
(PID.TID 0000.0001) %MON trAdv_CFL_w_max              =   1.8739092118555E-03
(PID.TID 0000.0001) %MON advcfl_uvel_max              =   2.3879134479498E-03
(PID.TID 0000.0001) %MON advcfl_vvel_max              =   1.7079485105515E-03
(PID.TID 0000.0001) %MON advcfl_wvel_max              =   2.7999222278595E-03
(PID.TID 0000.0001) %MON advcfl_W_hf_max              =   1.8739092118555E-03
(PID.TID 0000.0001) %MON pe_b_mean                    =   4.9925505376536E-04
(PID.TID 0000.0001) %MON ke_max                       =   2.5879562219692E-01
(PID.TID 0000.0001) %MON ke_mean                      =   1.6644382577099E-04
(PID.TID 0000.0001) %MON ke_vol                       =   1.3398134783010E+18
(PID.TID 0000.0001) %MON vort_r_min                   =  -4.5489480510353E-06
(PID.TID 0000.0001) %MON vort_r_max                   =   2.4831786889684E-06
(PID.TID 0000.0001) %MON vort_a_mean                  =  -2.0549865324846E-05
(PID.TID 0000.0001) %MON vort_a_sd                    =   7.5259739298815E-05
(PID.TID 0000.0001) %MON vort_p_mean                  =  -2.4783262585130E-05
(PID.TID 0000.0001) %MON vort_p_sd                    =   1.2811918725922E-04
(PID.TID 0000.0001) %MON surfExpan_theta_mean         =  -6.4304162617181E-06
(PID.TID 0000.0001) %MON surfExpan_salt_mean          =   1.3093991940941E-06
(PID.TID 0000.0001) // =======================================================
(PID.TID 0000.0001) // End MONITOR dynamic field statistics
(PID.TID 0000.0001) // =======================================================
(PID.TID 0000.0001) // =======================================================
(PID.TID 0000.0001) // Begin MONITOR SEAICE statistics
(PID.TID 0000.0001) // =======================================================
(PID.TID 0000.0001) %MON seaice_tsnumber              =                 72067
(PID.TID 0000.0001) %MON seaice_time_sec              =   6.4860300000000E+07
(PID.TID 0000.0001) %MON seaice_uice_max              =   5.8344005196806E-01
(PID.TID 0000.0001) %MON seaice_uice_min              =  -6.5247070858605E-01
(PID.TID 0000.0001) %MON seaice_uice_mean             =  -4.0836892765254E-03
(PID.TID 0000.0001) %MON seaice_uice_sd               =   6.1336674054655E-02
(PID.TID 0000.0001) %MON seaice_uice_del2             =   9.5793998572922E-04
(PID.TID 0000.0001) %MON seaice_vice_max              =   4.3196228802007E-01
(PID.TID 0000.0001) %MON seaice_vice_min              =  -5.7137736225056E-01
(PID.TID 0000.0001) %MON seaice_vice_mean             =  -1.4185587431069E-02
(PID.TID 0000.0001) %MON seaice_vice_sd               =   6.2835598459188E-02
(PID.TID 0000.0001) %MON seaice_vice_del2             =   9.3231980273736E-04
(PID.TID 0000.0001) %MON seaice_area_max              =   1.0000000000000E+00
(PID.TID 0000.0001) %MON seaice_area_min              =   0.0000000000000E+00
(PID.TID 0000.0001) %MON seaice_area_mean             =   6.9020713368231E-02
(PID.TID 0000.0001) %MON seaice_area_sd               =   2.3724005104394E-01
(PID.TID 0000.0001) %MON seaice_area_del2             =   1.7378843180741E-03
(PID.TID 0000.0001) %MON seaice_heff_max              =   8.5436341866630E+00
(PID.TID 0000.0001) %MON seaice_heff_min              =   0.0000000000000E+00
(PID.TID 0000.0001) %MON seaice_heff_mean             =   2.0602327074907E-01
(PID.TID 0000.0001) %MON seaice_heff_sd               =   9.8025258549110E-01
(PID.TID 0000.0001) %MON seaice_heff_del2             =   6.2360189283953E-03
(PID.TID 0000.0001) %MON seaice_hsnow_max             =   2.0319453896288E+00
(PID.TID 0000.0001) %MON seaice_hsnow_min             =   0.0000000000000E+00
(PID.TID 0000.0001) %MON seaice_hsnow_mean            =   2.2728380508564E-02
(PID.TID 0000.0001) %MON seaice_hsnow_sd              =   1.1938877894023E-01
(PID.TID 0000.0001) %MON seaice_hsnow_del2            =   1.4612034778226E-03
(PID.TID 0000.0001) // =======================================================
(PID.TID 0000.0001) // End MONITOR SEAICE statistics
(PID.TID 0000.0001) // =======================================================
 SEAICE_LSR: Residual Initial ipass,Uice,Vice=    1  3.57320367E-03  2.63752837E-03
 SEAICE_LSR (ipass=   1) iters,dU,Resid=     8  4.42993568E-05  3.37230806E-05
 SEAICE_LSR (ipass=   1) iters,dV,Resid=     8  4.86583405E-05  5.08573854E-06
 SEAICE_LSR: Residual Initial ipass,Uice,Vice=    2  2.64087052E-03  2.12604364E-03
 SEAICE_LSR (ipass=   2) iters,dU,Resid=     6  6.12112182E-05  4.24068985E-05
 SEAICE_LSR (ipass=   2) iters,dV,Resid=     6  9.15285343E-05  7.89970014E-06
 cg2d: Sum(rhs),rhsMax =  -7.27851841520698E+01  3.63498632247448E+01
(PID.TID 0000.0001)      cg2d_init_res =   2.49061761998382E-01
(PID.TID 0000.0001)      cg2d_iters(min,last) =      -1      10
(PID.TID 0000.0001)      cg2d_last_res =   4.56085064700657E-08
(PID.TID 0000.0001) // =======================================================
(PID.TID 0000.0001) // Begin MONITOR dynamic field statistics
(PID.TID 0000.0001) // =======================================================
(PID.TID 0000.0001) %MON time_tsnumber                =                 72068
(PID.TID 0000.0001) %MON time_secondsf                =   6.4861200000000E+07
(PID.TID 0000.0001) %MON dynstat_eta_max              =   1.0859992503550E+00
(PID.TID 0000.0001) %MON dynstat_eta_min              =  -1.6847101110297E+00
(PID.TID 0000.0001) %MON dynstat_eta_mean             =   3.0743049152458E-02
(PID.TID 0000.0001) %MON dynstat_eta_sd               =   6.1147227904338E-01
(PID.TID 0000.0001) %MON dynstat_eta_del2             =   1.5094445545524E-03
(PID.TID 0000.0001) %MON dynstat_uvel_max             =   5.4402969662220E-01
(PID.TID 0000.0001) %MON dynstat_uvel_min             =  -8.2036898125530E-01
(PID.TID 0000.0001) %MON dynstat_uvel_mean            =  -2.8187547591810E-04
(PID.TID 0000.0001) %MON dynstat_uvel_sd              =   1.3130416284117E-02
(PID.TID 0000.0001) %MON dynstat_uvel_del2            =   9.2729467399455E-05
(PID.TID 0000.0001) %MON dynstat_vvel_max             =   3.5300863260190E-01
(PID.TID 0000.0001) %MON dynstat_vvel_min             =  -5.6053339526203E-01
(PID.TID 0000.0001) %MON dynstat_vvel_mean            =   5.1103614382855E-04
(PID.TID 0000.0001) %MON dynstat_vvel_sd              =   1.3681677634649E-02
(PID.TID 0000.0001) %MON dynstat_vvel_del2            =   9.2860514531139E-05
(PID.TID 0000.0001) %MON dynstat_wvel_max             =   1.0435241308268E-04
(PID.TID 0000.0001) %MON dynstat_wvel_min             =  -1.9014702292634E-04
(PID.TID 0000.0001) %MON dynstat_wvel_mean            =  -1.9759139191074E-07
(PID.TID 0000.0001) %MON dynstat_wvel_sd              =   7.8182887604217E-06
(PID.TID 0000.0001) %MON dynstat_wvel_del2            =   7.0566590299314E-08
(PID.TID 0000.0001) %MON dynstat_theta_max            =   3.0923768009416E+01
(PID.TID 0000.0001) %MON dynstat_theta_min            =  -3.0081344653515E+00
(PID.TID 0000.0001) %MON dynstat_theta_mean           =   3.9091610750374E+00
(PID.TID 0000.0001) %MON dynstat_theta_sd             =   4.5714935548178E+00
(PID.TID 0000.0001) %MON dynstat_theta_del2           =   2.6405495140819E-03
(PID.TID 0000.0001) %MON dynstat_salt_max             =   4.1347362919133E+01
(PID.TID 0000.0001) %MON dynstat_salt_min             =   1.8519062815826E+01
(PID.TID 0000.0001) %MON dynstat_salt_mean            =   3.4771926425660E+01
(PID.TID 0000.0001) %MON dynstat_salt_sd              =   5.3207032270702E-01
(PID.TID 0000.0001) %MON dynstat_salt_del2            =   1.0905150883909E-03
(PID.TID 0000.0001) %MON dynstat_sst_max              =   3.0923768009416E+01
(PID.TID 0000.0001) %MON dynstat_sst_min              =  -1.9310364587887E+00
(PID.TID 0000.0001) %MON dynstat_sst_mean             =   1.8107556589482E+01
(PID.TID 0000.0001) %MON dynstat_sst_sd               =   9.8120905859897E+00
(PID.TID 0000.0001) %MON dynstat_sst_del2             =   1.5007954545451E-02
(PID.TID 0000.0001) %MON dynstat_sss_max              =   4.1347362919133E+01
(PID.TID 0000.0001) %MON dynstat_sss_min              =   1.8752178202544E+01
(PID.TID 0000.0001) %MON dynstat_sss_mean             =   3.4622493556832E+01
(PID.TID 0000.0001) %MON dynstat_sss_sd               =   1.4854704851282E+00
(PID.TID 0000.0001) %MON dynstat_sss_del2             =   1.2254659756477E-02
(PID.TID 0000.0001) %MON forcing_qnet_max             =   1.7757873535156E+03
(PID.TID 0000.0001) %MON forcing_qnet_min             =  -1.0539151611328E+03
(PID.TID 0000.0001) %MON forcing_qnet_mean            =  -1.0312456286069E+01
(PID.TID 0000.0001) %MON forcing_qnet_sd              =   2.1716275997682E+02
(PID.TID 0000.0001) %MON forcing_qnet_del2            =   3.5357239624057E+00
(PID.TID 0000.0001) %MON forcing_qsw_max              =   0.0000000000000E+00
(PID.TID 0000.0001) %MON forcing_qsw_min              =  -1.0819325377421E+02
(PID.TID 0000.0001) %MON forcing_qsw_mean             =  -1.5765761486320E+01
(PID.TID 0000.0001) %MON forcing_qsw_sd               =   2.7715352502782E+01
(PID.TID 0000.0001) %MON forcing_qsw_del2             =   1.3987551339564E-01
(PID.TID 0000.0001) %MON forcing_empmr_max            =   5.5416058748960E-03
(PID.TID 0000.0001) %MON forcing_empmr_min            =  -7.9668745398521E-02
(PID.TID 0000.0001) %MON forcing_empmr_mean           =  -2.4153592060666E-04
(PID.TID 0000.0001) %MON forcing_empmr_sd             =   3.5110611110828E-03
(PID.TID 0000.0001) %MON forcing_empmr_del2           =   1.3899515901950E-04
(PID.TID 0000.0001) %MON forcing_fu_max               =   3.7214164111820E-01
(PID.TID 0000.0001) %MON forcing_fu_min               =  -3.7161288263408E-01
(PID.TID 0000.0001) %MON forcing_fu_mean              =  -3.1016739317227E-03
(PID.TID 0000.0001) %MON forcing_fu_sd                =   6.2367295956620E-02
(PID.TID 0000.0001) %MON forcing_fu_del2              =   6.1495946084991E-04
(PID.TID 0000.0001) %MON forcing_fv_max               =   3.0432452503277E-01
(PID.TID 0000.0001) %MON forcing_fv_min               =  -2.5997337105366E-01
(PID.TID 0000.0001) %MON forcing_fv_mean              =  -1.4978363600813E-02
(PID.TID 0000.0001) %MON forcing_fv_sd                =   6.1253100403488E-02
(PID.TID 0000.0001) %MON forcing_fv_del2              =   5.3488986158510E-04
(PID.TID 0000.0001) %MON trAdv_CFL_u_max              =   2.4064789563583E-03
(PID.TID 0000.0001) %MON trAdv_CFL_v_max              =   1.6506584343988E-03
(PID.TID 0000.0001) %MON trAdv_CFL_w_max              =   1.8547624405801E-03
(PID.TID 0000.0001) %MON advcfl_uvel_max              =   2.3839997694939E-03
(PID.TID 0000.0001) %MON advcfl_vvel_max              =   1.6388349822689E-03
(PID.TID 0000.0001) %MON advcfl_wvel_max              =   2.7710867964703E-03
(PID.TID 0000.0001) %MON advcfl_W_hf_max              =   1.8547624405801E-03
(PID.TID 0000.0001) %MON pe_b_mean                    =   4.9935664810484E-04
(PID.TID 0000.0001) %MON ke_max                       =   2.5231089066902E-01
(PID.TID 0000.0001) %MON ke_mean                      =   1.6620769862761E-04
(PID.TID 0000.0001) %MON ke_vol                       =   1.3398135559230E+18
(PID.TID 0000.0001) %MON vort_r_min                   =  -4.4683633991129E-06
(PID.TID 0000.0001) %MON vort_r_max                   =   2.3059225960856E-06
(PID.TID 0000.0001) %MON vort_a_mean                  =  -2.0549865324846E-05
(PID.TID 0000.0001) %MON vort_a_sd                    =   7.5259737429663E-05
(PID.TID 0000.0001) %MON vort_p_mean                  =  -2.4783260935215E-05
(PID.TID 0000.0001) %MON vort_p_sd                    =   1.2811920336515E-04
(PID.TID 0000.0001) %MON surfExpan_theta_mean         =  -6.3366977598643E-06
(PID.TID 0000.0001) %MON surfExpan_salt_mean          =   1.2952666341035E-06
(PID.TID 0000.0001) // =======================================================
(PID.TID 0000.0001) // End MONITOR dynamic field statistics
(PID.TID 0000.0001) // =======================================================
(PID.TID 0000.0001) // =======================================================
(PID.TID 0000.0001) // Begin MONITOR SEAICE statistics
(PID.TID 0000.0001) // =======================================================
(PID.TID 0000.0001) %MON seaice_tsnumber              =                 72068
(PID.TID 0000.0001) %MON seaice_time_sec              =   6.4861200000000E+07
(PID.TID 0000.0001) %MON seaice_uice_max              =   5.3435798359789E-01
(PID.TID 0000.0001) %MON seaice_uice_min              =  -6.5507731540003E-01
(PID.TID 0000.0001) %MON seaice_uice_mean             =  -4.0566962269499E-03
(PID.TID 0000.0001) %MON seaice_uice_sd               =   6.1585900492772E-02
(PID.TID 0000.0001) %MON seaice_uice_del2             =   9.5109753131566E-04
(PID.TID 0000.0001) %MON seaice_vice_max              =   3.6711908951762E-01
(PID.TID 0000.0001) %MON seaice_vice_min              =  -5.5227916825829E-01
(PID.TID 0000.0001) %MON seaice_vice_mean             =  -1.4124449097594E-02
(PID.TID 0000.0001) %MON seaice_vice_sd               =   6.2513053866087E-02
(PID.TID 0000.0001) %MON seaice_vice_del2             =   9.0901038582162E-04
(PID.TID 0000.0001) %MON seaice_area_max              =   1.0000000000000E+00
(PID.TID 0000.0001) %MON seaice_area_min              =   0.0000000000000E+00
(PID.TID 0000.0001) %MON seaice_area_mean             =   6.9013958197842E-02
(PID.TID 0000.0001) %MON seaice_area_sd               =   2.3722305477223E-01
(PID.TID 0000.0001) %MON seaice_area_del2             =   1.7373302139964E-03
(PID.TID 0000.0001) %MON seaice_heff_max              =   8.5441782420920E+00
(PID.TID 0000.0001) %MON seaice_heff_min              =   0.0000000000000E+00
(PID.TID 0000.0001) %MON seaice_heff_mean             =   2.0601623794030E-01
(PID.TID 0000.0001) %MON seaice_heff_sd               =   9.8025295554323E-01
(PID.TID 0000.0001) %MON seaice_heff_del2             =   6.2356256376215E-03
(PID.TID 0000.0001) %MON seaice_hsnow_max             =   2.0319549811790E+00
(PID.TID 0000.0001) %MON seaice_hsnow_min             =   0.0000000000000E+00
(PID.TID 0000.0001) %MON seaice_hsnow_mean            =   2.2726874019738E-02
(PID.TID 0000.0001) %MON seaice_hsnow_sd              =   1.1938418586167E-01
(PID.TID 0000.0001) %MON seaice_hsnow_del2            =   1.4611535697814E-03
(PID.TID 0000.0001) // =======================================================
(PID.TID 0000.0001) // End MONITOR SEAICE statistics
(PID.TID 0000.0001) // =======================================================
 Compute Stats, Diag. #    211  SIarea    vol(   0 ): 1.456E+15  Parms: SM      M1      
 Compute Stats, Diag. #    214  SIheff    vol(   0 ): 1.456E+15  Parms: SM      M1      
 Compute Stats, Diag. #    216  SIhsnow   vol(   0 ): 1.456E+15  Parms: SM      M1      
 Compute Stats, Diag. #     83  sIceLoad  vol(   0 ): 1.456E+15  Parms: SM      U1      
 Compute Stats, Diag. #    220  SIuice    vol(   0 ): 1.383E+15  Parms: UU      M1      
 Compute Stats, Diag. #    221  SIvice    vol(   0 ): 1.391E+15  Parms: VV      M1      
 Compute Stats, Diag. #    222  SItaux    vol(   0 ): 1.383E+15  Parms: UU      U1      
 Compute Stats, Diag. #    223  SItauy    vol(   0 ): 1.391E+15  Parms: VV      U1      
 SEAICE_LSR: Residual Initial ipass,Uice,Vice=    1  3.58799041E-03  2.82257261E-03
 SEAICE_LSR (ipass=   1) iters,dU,Resid=     8  4.51455845E-05  3.26496111E-05
 SEAICE_LSR (ipass=   1) iters,dV,Resid=     8  4.55875449E-05  5.69090389E-06
 SEAICE_LSR: Residual Initial ipass,Uice,Vice=    2  2.73082784E-03  2.30758321E-03
 SEAICE_LSR (ipass=   2) iters,dU,Resid=     6  6.19151512E-05  4.07310903E-05
 SEAICE_LSR (ipass=   2) iters,dV,Resid=     6  8.69186685E-05  7.48583469E-06
 cg2d: Sum(rhs),rhsMax =  -7.33709317581079E+01  3.63019158317992E+01
(PID.TID 0000.0001)      cg2d_init_res =   2.37682246756697E-01
(PID.TID 0000.0001)      cg2d_iters(min,last) =      -1      10
(PID.TID 0000.0001)      cg2d_last_res =   6.02314514477234E-08
(PID.TID 0000.0001) // =======================================================
(PID.TID 0000.0001) // Begin MONITOR dynamic field statistics
(PID.TID 0000.0001) // =======================================================
(PID.TID 0000.0001) %MON time_tsnumber                =                 72069
(PID.TID 0000.0001) %MON time_secondsf                =   6.4862100000000E+07
(PID.TID 0000.0001) %MON dynstat_eta_max              =   1.1345151151699E+00
(PID.TID 0000.0001) %MON dynstat_eta_min              =  -1.8313148940047E+00
(PID.TID 0000.0001) %MON dynstat_eta_mean             =   3.0949579519597E-02
(PID.TID 0000.0001) %MON dynstat_eta_sd               =   6.1153587779677E-01
(PID.TID 0000.0001) %MON dynstat_eta_del2             =   1.5596079038191E-03
(PID.TID 0000.0001) %MON dynstat_uvel_max             =   5.2845231647819E-01
(PID.TID 0000.0001) %MON dynstat_uvel_min             =  -8.1570057570259E-01
(PID.TID 0000.0001) %MON dynstat_uvel_mean            =  -2.8133363991055E-04
(PID.TID 0000.0001) %MON dynstat_uvel_sd              =   1.3132820005809E-02
(PID.TID 0000.0001) %MON dynstat_uvel_del2            =   9.1707860163496E-05
(PID.TID 0000.0001) %MON dynstat_vvel_max             =   3.3921112035368E-01
(PID.TID 0000.0001) %MON dynstat_vvel_min             =  -5.3392997660767E-01
(PID.TID 0000.0001) %MON dynstat_vvel_mean            =   4.9651179148569E-04
(PID.TID 0000.0001) %MON dynstat_vvel_sd              =   1.3660400999387E-02
(PID.TID 0000.0001) %MON dynstat_vvel_del2            =   9.0794798024946E-05
(PID.TID 0000.0001) %MON dynstat_wvel_max             =   1.0415514689055E-04
(PID.TID 0000.0001) %MON dynstat_wvel_min             =  -1.9014844888710E-04
(PID.TID 0000.0001) %MON dynstat_wvel_mean            =  -1.8545268388604E-07
(PID.TID 0000.0001) %MON dynstat_wvel_sd              =   7.7988953945518E-06
(PID.TID 0000.0001) %MON dynstat_wvel_del2            =   7.0125772411923E-08
(PID.TID 0000.0001) %MON dynstat_theta_max            =   3.0923638546157E+01
(PID.TID 0000.0001) %MON dynstat_theta_min            =  -3.0083709963138E+00
(PID.TID 0000.0001) %MON dynstat_theta_mean           =   3.9091631947553E+00
(PID.TID 0000.0001) %MON dynstat_theta_sd             =   4.5715004606359E+00
(PID.TID 0000.0001) %MON dynstat_theta_del2           =   2.6404363002903E-03
(PID.TID 0000.0001) %MON dynstat_salt_max             =   4.1347301733328E+01
(PID.TID 0000.0001) %MON dynstat_salt_min             =   1.8519072971229E+01
(PID.TID 0000.0001) %MON dynstat_salt_mean            =   3.4771924476633E+01
(PID.TID 0000.0001) %MON dynstat_salt_sd              =   5.3208328284063E-01
(PID.TID 0000.0001) %MON dynstat_salt_del2            =   1.0935501868833E-03
(PID.TID 0000.0001) %MON dynstat_sst_max              =   3.0923638546157E+01
(PID.TID 0000.0001) %MON dynstat_sst_min              =  -1.9306770892878E+00
(PID.TID 0000.0001) %MON dynstat_sst_mean             =   1.8107616291287E+01
(PID.TID 0000.0001) %MON dynstat_sst_sd               =   9.8121712785318E+00
(PID.TID 0000.0001) %MON dynstat_sst_del2             =   1.5006035327895E-02
(PID.TID 0000.0001) %MON dynstat_sss_max              =   4.1347301733328E+01
(PID.TID 0000.0001) %MON dynstat_sss_min              =   1.8752196697330E+01
(PID.TID 0000.0001) %MON dynstat_sss_mean             =   3.4622346987151E+01
(PID.TID 0000.0001) %MON dynstat_sss_sd               =   1.4858039859723E+00
(PID.TID 0000.0001) %MON dynstat_sss_del2             =   1.2297328679246E-02
(PID.TID 0000.0001) %MON forcing_qnet_max             =   1.7559099121094E+03
(PID.TID 0000.0001) %MON forcing_qnet_min             =  -1.2251622314453E+03
(PID.TID 0000.0001) %MON forcing_qnet_mean            =  -1.3913687524940E+01
(PID.TID 0000.0001) %MON forcing_qnet_sd              =   2.1806788172839E+02
(PID.TID 0000.0001) %MON forcing_qnet_del2            =   3.5422256078561E+00
(PID.TID 0000.0001) %MON forcing_qsw_max              =   0.0000000000000E+00
(PID.TID 0000.0001) %MON forcing_qsw_min              =  -1.0828547376689E+02
(PID.TID 0000.0001) %MON forcing_qsw_mean             =  -1.6153690244848E+01
(PID.TID 0000.0001) %MON forcing_qsw_sd               =   2.7998053003346E+01
(PID.TID 0000.0001) %MON forcing_qsw_del2             =   1.3873368180085E-01
(PID.TID 0000.0001) %MON forcing_empmr_max            =   5.4845316335559E-03
(PID.TID 0000.0001) %MON forcing_empmr_min            =  -7.8848116099834E-02
(PID.TID 0000.0001) %MON forcing_empmr_mean           =  -2.3750992220989E-04
(PID.TID 0000.0001) %MON forcing_empmr_sd             =   3.4730023228741E-03
(PID.TID 0000.0001) %MON forcing_empmr_del2           =   1.3753685991660E-04
(PID.TID 0000.0001) %MON forcing_fu_max               =   3.5847962601774E-01
(PID.TID 0000.0001) %MON forcing_fu_min               =  -3.6971132184375E-01
(PID.TID 0000.0001) %MON forcing_fu_mean              =  -3.1115053630846E-03
(PID.TID 0000.0001) %MON forcing_fu_sd                =   6.2233938127186E-02
(PID.TID 0000.0001) %MON forcing_fu_del2              =   6.1278638663965E-04
(PID.TID 0000.0001) %MON forcing_fv_max               =   2.9881618584680E-01
(PID.TID 0000.0001) %MON forcing_fv_min               =  -2.5917636502909E-01
(PID.TID 0000.0001) %MON forcing_fv_mean              =  -1.4968717349039E-02
(PID.TID 0000.0001) %MON forcing_fv_sd                =   6.1176735202007E-02
(PID.TID 0000.0001) %MON forcing_fv_del2              =   5.3342385198745E-04
(PID.TID 0000.0001) %MON trAdv_CFL_u_max              =   2.3951897608554E-03
(PID.TID 0000.0001) %MON trAdv_CFL_v_max              =   1.5741179723066E-03
(PID.TID 0000.0001) %MON trAdv_CFL_w_max              =   1.8305398478962E-03
(PID.TID 0000.0001) %MON advcfl_uvel_max              =   2.3704333402214E-03
(PID.TID 0000.0001) %MON advcfl_vvel_max              =   1.5610544012950E-03
(PID.TID 0000.0001) %MON advcfl_wvel_max              =   2.7425431686899E-03
(PID.TID 0000.0001) %MON advcfl_W_hf_max              =   1.8305398478962E-03
(PID.TID 0000.0001) %MON pe_b_mean                    =   4.9947721223751E-04
(PID.TID 0000.0001) %MON ke_max                       =   2.4392322561201E-01
(PID.TID 0000.0001) %MON ke_mean                      =   1.6595989889511E-04
(PID.TID 0000.0001) %MON ke_vol                       =   1.3398136323506E+18
(PID.TID 0000.0001) %MON vort_r_min                   =  -4.3674462456429E-06
(PID.TID 0000.0001) %MON vort_r_max                   =   2.2083394479385E-06
(PID.TID 0000.0001) %MON vort_a_mean                  =  -2.0549865324846E-05
(PID.TID 0000.0001) %MON vort_a_sd                    =   7.5259734981693E-05
(PID.TID 0000.0001) %MON vort_p_mean                  =  -2.4783259322159E-05
(PID.TID 0000.0001) %MON vort_p_sd                    =   1.2811921509154E-04
(PID.TID 0000.0001) %MON surfExpan_theta_mean         =  -6.2654426076234E-06
(PID.TID 0000.0001) %MON surfExpan_salt_mean          =   1.2787816835622E-06
(PID.TID 0000.0001) // =======================================================
(PID.TID 0000.0001) // End MONITOR dynamic field statistics
(PID.TID 0000.0001) // =======================================================
(PID.TID 0000.0001) // =======================================================
(PID.TID 0000.0001) // Begin MONITOR SEAICE statistics
(PID.TID 0000.0001) // =======================================================
(PID.TID 0000.0001) %MON seaice_tsnumber              =                 72069
(PID.TID 0000.0001) %MON seaice_time_sec              =   6.4862100000000E+07
(PID.TID 0000.0001) %MON seaice_uice_max              =   5.1175073744839E-01
(PID.TID 0000.0001) %MON seaice_uice_min              =  -6.5417222152639E-01
(PID.TID 0000.0001) %MON seaice_uice_mean             =  -4.0478889254224E-03
(PID.TID 0000.0001) %MON seaice_uice_sd               =   6.1758254388255E-02
(PID.TID 0000.0001) %MON seaice_uice_del2             =   9.4327716880825E-04
(PID.TID 0000.0001) %MON seaice_vice_max              =   3.4548636057367E-01
(PID.TID 0000.0001) %MON seaice_vice_min              =  -5.3004715658634E-01
(PID.TID 0000.0001) %MON seaice_vice_mean             =  -1.4067979052123E-02
(PID.TID 0000.0001) %MON seaice_vice_sd               =   6.2209630125067E-02
(PID.TID 0000.0001) %MON seaice_vice_del2             =   8.8504659806865E-04
(PID.TID 0000.0001) %MON seaice_area_max              =   1.0000000000000E+00
(PID.TID 0000.0001) %MON seaice_area_min              =   0.0000000000000E+00
(PID.TID 0000.0001) %MON seaice_area_mean             =   6.9007234223945E-02
(PID.TID 0000.0001) %MON seaice_area_sd               =   2.3720608242956E-01
(PID.TID 0000.0001) %MON seaice_area_del2             =   1.7368044109036E-03
(PID.TID 0000.0001) %MON seaice_heff_max              =   8.5447069460645E+00
(PID.TID 0000.0001) %MON seaice_heff_min              =   0.0000000000000E+00
(PID.TID 0000.0001) %MON seaice_heff_mean             =   2.0600902252981E-01
(PID.TID 0000.0001) %MON seaice_heff_sd               =   9.8025248789436E-01
(PID.TID 0000.0001) %MON seaice_heff_del2             =   6.2352415747081E-03
(PID.TID 0000.0001) %MON seaice_hsnow_max             =   2.0319646491881E+00
(PID.TID 0000.0001) %MON seaice_hsnow_min             =   0.0000000000000E+00
(PID.TID 0000.0001) %MON seaice_hsnow_mean            =   2.2725330495520E-02
(PID.TID 0000.0001) %MON seaice_hsnow_sd              =   1.1937958704963E-01
(PID.TID 0000.0001) %MON seaice_hsnow_del2            =   1.4611050979471E-03
(PID.TID 0000.0001) // =======================================================
(PID.TID 0000.0001) // End MONITOR SEAICE statistics
(PID.TID 0000.0001) // =======================================================
 Computing Diagnostic #    211  SIarea       Counter:       1   Parms: SM      M1      
 Computing Diagnostic #    214  SIheff       Counter:       1   Parms: SM      M1      
 Computing Diagnostic #    216  SIhsnow      Counter:       1   Parms: SM      M1      
 Computing Diagnostic #     83  sIceLoad     Counter:       1   Parms: SM      U1      
 Computing Diagnostic #    220  SIuice       Counter:       1   Parms: UU      M1      
           Vector  Mate for  SIuice       Diagnostic #    221  SIvice   exists 
 Computing Diagnostic #    221  SIvice       Counter:       1   Parms: VV      M1      
           Vector  Mate for  SIvice       Diagnostic #    220  SIuice   exists 
 Computing Diagnostic #    222  SItaux       Counter:       1   Parms: UU      U1      
           Vector  Mate for  SItaux       Diagnostic #    223  SItauy   exists 
 Computing Diagnostic #    223  SItauy       Counter:       1   Parms: VV      U1      
           Vector  Mate for  SItauy       Diagnostic #    222  SItaux   exists 
 Computing Diagnostic #      1  SDIAG1       Counter:       1   Parms: SM      L1      
 Computing Diagnostic #    282  SIareaN      Counter:       1   Parms: SM      MX      
 Computing Diagnostic #    281  SIheffN      Counter:       1   Parms: SM      MX      
 Computing Diagnostic #    283  SIhsnowN     Counter:       1   Parms: SM      MX      
 SEAICE_LSR: Residual Initial ipass,Uice,Vice=    1  3.64373397E-03  2.98219574E-03
 SEAICE_LSR (ipass=   1) iters,dU,Resid=     8  4.57915500E-05  3.05369857E-05
 SEAICE_LSR (ipass=   1) iters,dV,Resid=     8  4.47702697E-05  6.28854948E-06
 SEAICE_LSR: Residual Initial ipass,Uice,Vice=    2  2.86963712E-03  2.48830640E-03
 SEAICE_LSR (ipass=   2) iters,dU,Resid=     6  6.19888652E-05  3.74433092E-05
 SEAICE_LSR (ipass=   2) iters,dV,Resid=     6  8.56611937E-05  7.57999502E-06
 cg2d: Sum(rhs),rhsMax =  -7.39462103320677E+01  3.62570445687232E+01
(PID.TID 0000.0001)      cg2d_init_res =   2.26821086224760E-01
(PID.TID 0000.0001)      cg2d_iters(min,last) =      -1      10
(PID.TID 0000.0001)      cg2d_last_res =   7.48899767314176E-08
(PID.TID 0000.0001) // =======================================================
(PID.TID 0000.0001) // Begin MONITOR dynamic field statistics
(PID.TID 0000.0001) // =======================================================
(PID.TID 0000.0001) %MON time_tsnumber                =                 72070
(PID.TID 0000.0001) %MON time_secondsf                =   6.4863000000000E+07
(PID.TID 0000.0001) %MON dynstat_eta_max              =   1.1785170455194E+00
(PID.TID 0000.0001) %MON dynstat_eta_min              =  -1.9454894352914E+00
(PID.TID 0000.0001) %MON dynstat_eta_mean             =   3.1153690096365E-02
(PID.TID 0000.0001) %MON dynstat_eta_sd               =   6.1160411952270E-01
(PID.TID 0000.0001) %MON dynstat_eta_del2             =   1.6066872105076E-03
(PID.TID 0000.0001) %MON dynstat_uvel_max             =   5.0670628676917E-01
(PID.TID 0000.0001) %MON dynstat_uvel_min             =  -8.0763953962481E-01
(PID.TID 0000.0001) %MON dynstat_uvel_mean            =  -2.8273722587267E-04
(PID.TID 0000.0001) %MON dynstat_uvel_sd              =   1.3130819267793E-02
(PID.TID 0000.0001) %MON dynstat_uvel_del2            =   9.0685459136408E-05
(PID.TID 0000.0001) %MON dynstat_vvel_max             =   3.2445113329481E-01
(PID.TID 0000.0001) %MON dynstat_vvel_min             =  -5.0453671119853E-01
(PID.TID 0000.0001) %MON dynstat_vvel_mean            =   4.8029833841576E-04
(PID.TID 0000.0001) %MON dynstat_vvel_sd              =   1.3643358855300E-02
(PID.TID 0000.0001) %MON dynstat_vvel_del2            =   8.8855087666523E-05
(PID.TID 0000.0001) %MON dynstat_wvel_max             =   1.0398080360681E-04
(PID.TID 0000.0001) %MON dynstat_wvel_min             =  -1.9014747555359E-04
(PID.TID 0000.0001) %MON dynstat_wvel_mean            =  -1.7525428498182E-07
(PID.TID 0000.0001) %MON dynstat_wvel_sd              =   7.7831965933684E-06
(PID.TID 0000.0001) %MON dynstat_wvel_del2            =   6.9772494605893E-08
(PID.TID 0000.0001) %MON dynstat_theta_max            =   3.0923503679772E+01
(PID.TID 0000.0001) %MON dynstat_theta_min            =  -3.0086311026809E+00
(PID.TID 0000.0001) %MON dynstat_theta_mean           =   3.9091654415335E+00
(PID.TID 0000.0001) %MON dynstat_theta_sd             =   4.5715078485817E+00
(PID.TID 0000.0001) %MON dynstat_theta_del2           =   2.6403300887578E-03
(PID.TID 0000.0001) %MON dynstat_salt_max             =   4.1347247272337E+01
(PID.TID 0000.0001) %MON dynstat_salt_min             =   1.8519083105129E+01
(PID.TID 0000.0001) %MON dynstat_salt_mean            =   3.4771922566202E+01
(PID.TID 0000.0001) %MON dynstat_salt_sd              =   5.3209606872899E-01
(PID.TID 0000.0001) %MON dynstat_salt_del2            =   1.0965273162292E-03
(PID.TID 0000.0001) %MON dynstat_sst_max              =   3.0923503679772E+01
(PID.TID 0000.0001) %MON dynstat_sst_min              =  -1.9303036605147E+00
(PID.TID 0000.0001) %MON dynstat_sst_mean             =   1.8107682672081E+01
(PID.TID 0000.0001) %MON dynstat_sst_sd               =   9.8122554967950E+00
(PID.TID 0000.0001) %MON dynstat_sst_del2             =   1.5004327444963E-02
(PID.TID 0000.0001) %MON dynstat_sss_max              =   4.1347247272337E+01
(PID.TID 0000.0001) %MON dynstat_sss_min              =   1.8752214953476E+01
(PID.TID 0000.0001) %MON dynstat_sss_mean             =   3.4622202198249E+01
(PID.TID 0000.0001) %MON dynstat_sss_sd               =   1.4861328921916E+00
(PID.TID 0000.0001) %MON dynstat_sss_del2             =   1.2339162818896E-02
(PID.TID 0000.0001) %MON forcing_qnet_max             =   1.7352918701172E+03
(PID.TID 0000.0001) %MON forcing_qnet_min             =  -2.5103593750000E+03
(PID.TID 0000.0001) %MON forcing_qnet_mean            =  -1.6241332069583E+01
(PID.TID 0000.0001) %MON forcing_qnet_sd              =   2.2280165281770E+02
(PID.TID 0000.0001) %MON forcing_qnet_del2            =   4.1251873660770E+00
(PID.TID 0000.0001) %MON forcing_qsw_max              =   0.0000000000000E+00
(PID.TID 0000.0001) %MON forcing_qsw_min              =  -1.0788590611591E+02
(PID.TID 0000.0001) %MON forcing_qsw_mean             =  -1.6339691319534E+01
(PID.TID 0000.0001) %MON forcing_qsw_sd               =   2.8069236861394E+01
(PID.TID 0000.0001) %MON forcing_qsw_del2             =   1.3948975159835E-01
(PID.TID 0000.0001) %MON forcing_empmr_max            =   5.4280483163893E-03
(PID.TID 0000.0001) %MON forcing_empmr_min            =  -7.8035883605480E-02
(PID.TID 0000.0001) %MON forcing_empmr_mean           =  -2.3472716328257E-04
(PID.TID 0000.0001) %MON forcing_empmr_sd             =   3.4369043401397E-03
(PID.TID 0000.0001) %MON forcing_empmr_del2           =   1.3612116728355E-04
(PID.TID 0000.0001) %MON forcing_fu_max               =   3.4480923884721E-01
(PID.TID 0000.0001) %MON forcing_fu_min               =  -3.6838647679561E-01
(PID.TID 0000.0001) %MON forcing_fu_mean              =  -3.2140027501161E-03
(PID.TID 0000.0001) %MON forcing_fu_sd                =   6.1814927184072E-02
(PID.TID 0000.0001) %MON forcing_fu_del2              =   6.0995935030924E-04
(PID.TID 0000.0001) %MON forcing_fv_max               =   2.9848755372437E-01
(PID.TID 0000.0001) %MON forcing_fv_min               =  -2.5816892971855E-01
(PID.TID 0000.0001) %MON forcing_fv_mean              =  -1.4877558572347E-02
(PID.TID 0000.0001) %MON forcing_fv_sd                =   6.1122940469072E-02
(PID.TID 0000.0001) %MON forcing_fv_del2              =   5.3282362510210E-04
(PID.TID 0000.0001) %MON trAdv_CFL_u_max              =   2.3739049531813E-03
(PID.TID 0000.0001) %MON trAdv_CFL_v_max              =   1.4890185074004E-03
(PID.TID 0000.0001) %MON trAdv_CFL_w_max              =   1.8014012365517E-03
(PID.TID 0000.0001) %MON advcfl_uvel_max              =   2.3470078955856E-03
(PID.TID 0000.0001) %MON advcfl_vvel_max              =   1.4751171279715E-03
(PID.TID 0000.0001) %MON advcfl_wvel_max              =   2.7142916036689E-03
(PID.TID 0000.0001) %MON advcfl_W_hf_max              =   1.8014012365517E-03
(PID.TID 0000.0001) %MON pe_b_mean                    =   4.9960526620918E-04
(PID.TID 0000.0001) %MON ke_max                       =   2.3374776575118E-01
(PID.TID 0000.0001) %MON ke_mean                      =   1.6571292313288E-04
(PID.TID 0000.0001) %MON ke_vol                       =   1.3398137075043E+18
(PID.TID 0000.0001) %MON vort_r_min                   =  -4.2465291583146E-06
(PID.TID 0000.0001) %MON vort_r_max                   =   2.1643577361528E-06
(PID.TID 0000.0001) %MON vort_a_mean                  =  -2.0549865324846E-05
(PID.TID 0000.0001) %MON vort_a_sd                    =   7.5259732008121E-05
(PID.TID 0000.0001) %MON vort_p_mean                  =  -2.4783257737148E-05
(PID.TID 0000.0001) %MON vort_p_sd                    =   1.2811922287038E-04
(PID.TID 0000.0001) %MON surfExpan_theta_mean         =  -6.2277651901898E-06
(PID.TID 0000.0001) %MON surfExpan_salt_mean          =   1.2618825820406E-06
(PID.TID 0000.0001) // =======================================================
(PID.TID 0000.0001) // End MONITOR dynamic field statistics
(PID.TID 0000.0001) // =======================================================
(PID.TID 0000.0001) // =======================================================
(PID.TID 0000.0001) // Begin MONITOR SEAICE statistics
(PID.TID 0000.0001) // =======================================================
(PID.TID 0000.0001) %MON seaice_tsnumber              =                 72070
(PID.TID 0000.0001) %MON seaice_time_sec              =   6.4863000000000E+07
(PID.TID 0000.0001) %MON seaice_uice_max              =   4.9645995904394E-01
(PID.TID 0000.0001) %MON seaice_uice_min              =  -6.4965944706300E-01
(PID.TID 0000.0001) %MON seaice_uice_mean             =  -4.0482112998606E-03
(PID.TID 0000.0001) %MON seaice_uice_sd               =   6.1834722198991E-02
(PID.TID 0000.0001) %MON seaice_uice_del2             =   9.3461445440962E-04
(PID.TID 0000.0001) %MON seaice_vice_max              =   3.2681802716576E-01
(PID.TID 0000.0001) %MON seaice_vice_min              =  -5.0475360720878E-01
(PID.TID 0000.0001) %MON seaice_vice_mean             =  -1.4039570544322E-02
(PID.TID 0000.0001) %MON seaice_vice_sd               =   6.1950782325247E-02
(PID.TID 0000.0001) %MON seaice_vice_del2             =   8.6232959539967E-04
(PID.TID 0000.0001) %MON seaice_area_max              =   1.0000000000000E+00
(PID.TID 0000.0001) %MON seaice_area_min              =   0.0000000000000E+00
(PID.TID 0000.0001) %MON seaice_area_mean             =   6.9000986563172E-02
(PID.TID 0000.0001) %MON seaice_area_sd               =   2.3719095591641E-01
(PID.TID 0000.0001) %MON seaice_area_del2             =   1.7362953400754E-03
(PID.TID 0000.0001) %MON seaice_heff_max              =   8.5452193665175E+00
(PID.TID 0000.0001) %MON seaice_heff_min              =   0.0000000000000E+00
(PID.TID 0000.0001) %MON seaice_heff_mean             =   2.0600167658626E-01
(PID.TID 0000.0001) %MON seaice_heff_sd               =   9.8025136324722E-01
(PID.TID 0000.0001) %MON seaice_heff_del2             =   6.2348663433318E-03
(PID.TID 0000.0001) %MON seaice_hsnow_max             =   2.0319749696996E+00
(PID.TID 0000.0001) %MON seaice_hsnow_min             =   0.0000000000000E+00
(PID.TID 0000.0001) %MON seaice_hsnow_mean            =   2.2723678484675E-02
(PID.TID 0000.0001) %MON seaice_hsnow_sd              =   1.1937491790517E-01
(PID.TID 0000.0001) %MON seaice_hsnow_del2            =   1.4610591116020E-03
(PID.TID 0000.0001) // =======================================================
(PID.TID 0000.0001) // End MONITOR SEAICE statistics
(PID.TID 0000.0001) // =======================================================
 SEAICE_LSR: Residual Initial ipass,Uice,Vice=    1  3.73469423E-03  3.16452954E-03
 SEAICE_LSR (ipass=   1) iters,dU,Resid=     8  4.60805223E-05  2.76642071E-05
 SEAICE_LSR (ipass=   1) iters,dV,Resid=     8  4.27380200E-05  6.86868951E-06
 SEAICE_LSR: Residual Initial ipass,Uice,Vice=    2  3.05543384E-03  2.69017236E-03
 SEAICE_LSR (ipass=   2) iters,dU,Resid=     6  6.14469727E-05  3.38888177E-05
 SEAICE_LSR (ipass=   2) iters,dV,Resid=     6  8.13889315E-05  7.77491265E-06
 cg2d: Sum(rhs),rhsMax =  -7.45094787440361E+01  3.62161941148881E+01
(PID.TID 0000.0001)      cg2d_init_res =   2.16776544605548E-01
(PID.TID 0000.0001)      cg2d_iters(min,last) =      -1      10
(PID.TID 0000.0001)      cg2d_last_res =   8.38024309656045E-08
(PID.TID 0000.0001) // =======================================================
(PID.TID 0000.0001) // Begin MONITOR dynamic field statistics
(PID.TID 0000.0001) // =======================================================
(PID.TID 0000.0001) %MON time_tsnumber                =                 72071
(PID.TID 0000.0001) %MON time_secondsf                =   6.4863900000000E+07
(PID.TID 0000.0001) %MON dynstat_eta_max              =   1.2175690094057E+00
(PID.TID 0000.0001) %MON dynstat_eta_min              =  -2.0269349451007E+00
(PID.TID 0000.0001) %MON dynstat_eta_mean             =   3.1355628308480E-02
(PID.TID 0000.0001) %MON dynstat_eta_sd               =   6.1166989170410E-01
(PID.TID 0000.0001) %MON dynstat_eta_del2             =   1.6474996088042E-03
(PID.TID 0000.0001) %MON dynstat_uvel_max             =   4.7927135018554E-01
(PID.TID 0000.0001) %MON dynstat_uvel_min             =  -7.9615887783135E-01
(PID.TID 0000.0001) %MON dynstat_uvel_mean            =  -2.8597027407198E-04
(PID.TID 0000.0001) %MON dynstat_uvel_sd              =   1.3125277340710E-02
(PID.TID 0000.0001) %MON dynstat_uvel_del2            =   8.9688111553266E-05
(PID.TID 0000.0001) %MON dynstat_vvel_max             =   3.0886445987701E-01
(PID.TID 0000.0001) %MON dynstat_vvel_min             =  -4.7254851891681E-01
(PID.TID 0000.0001) %MON dynstat_vvel_mean            =   4.6260459401798E-04
(PID.TID 0000.0001) %MON dynstat_vvel_sd              =   1.3630880638715E-02
(PID.TID 0000.0001) %MON dynstat_vvel_del2            =   8.7151313650242E-05
(PID.TID 0000.0001) %MON dynstat_wvel_max             =   1.0382817140858E-04
(PID.TID 0000.0001) %MON dynstat_wvel_min             =  -1.9013252413629E-04
(PID.TID 0000.0001) %MON dynstat_wvel_mean            =  -1.6569097102512E-07
(PID.TID 0000.0001) %MON dynstat_wvel_sd              =   7.7706246211495E-06
(PID.TID 0000.0001) %MON dynstat_wvel_del2            =   6.9490201447333E-08
(PID.TID 0000.0001) %MON dynstat_theta_max            =   3.0923362001141E+01
(PID.TID 0000.0001) %MON dynstat_theta_min            =  -3.0089172410444E+00
(PID.TID 0000.0001) %MON dynstat_theta_mean           =   3.9091677297609E+00
(PID.TID 0000.0001) %MON dynstat_theta_sd             =   4.5715154403461E+00
(PID.TID 0000.0001) %MON dynstat_theta_del2           =   2.6402198932627E-03
(PID.TID 0000.0001) %MON dynstat_salt_max             =   4.1347198150084E+01
(PID.TID 0000.0001) %MON dynstat_salt_min             =   1.8519093217638E+01
(PID.TID 0000.0001) %MON dynstat_salt_mean            =   3.4771920687145E+01
(PID.TID 0000.0001) %MON dynstat_salt_sd              =   5.3210867005308E-01
(PID.TID 0000.0001) %MON dynstat_salt_del2            =   1.0994452551351E-03
(PID.TID 0000.0001) %MON dynstat_sst_max              =   3.0923362001141E+01
(PID.TID 0000.0001) %MON dynstat_sst_min              =  -1.9299151456959E+00
(PID.TID 0000.0001) %MON dynstat_sst_mean             =   1.8107753153176E+01
(PID.TID 0000.0001) %MON dynstat_sst_sd               =   9.8123426830063E+00
(PID.TID 0000.0001) %MON dynstat_sst_del2             =   1.5002502281689E-02
(PID.TID 0000.0001) %MON dynstat_sss_max              =   4.1347198150084E+01
(PID.TID 0000.0001) %MON dynstat_sss_min              =   1.8752232910987E+01
(PID.TID 0000.0001) %MON dynstat_sss_mean             =   3.4622059694428E+01
(PID.TID 0000.0001) %MON dynstat_sss_sd               =   1.4864569193737E+00
(PID.TID 0000.0001) %MON dynstat_sss_del2             =   1.2380139136717E-02
(PID.TID 0000.0001) %MON forcing_qnet_max             =   1.7158936767578E+03
(PID.TID 0000.0001) %MON forcing_qnet_min             =  -3.2129887695312E+03
(PID.TID 0000.0001) %MON forcing_qnet_mean            =  -1.7285076386356E+01
(PID.TID 0000.0001) %MON forcing_qnet_sd              =   2.2346508186011E+02
(PID.TID 0000.0001) %MON forcing_qnet_del2            =   4.2579780616769E+00
(PID.TID 0000.0001) %MON forcing_qsw_max              =   0.0000000000000E+00
(PID.TID 0000.0001) %MON forcing_qsw_min              =  -1.0705070985202E+02
(PID.TID 0000.0001) %MON forcing_qsw_mean             =  -1.6495496906755E+01
(PID.TID 0000.0001) %MON forcing_qsw_sd               =   2.8072581926019E+01
(PID.TID 0000.0001) %MON forcing_qsw_del2             =   1.4007897192005E-01
(PID.TID 0000.0001) %MON forcing_empmr_max            =   5.3721549920738E-03
(PID.TID 0000.0001) %MON forcing_empmr_min            =  -7.7232882380486E-02
(PID.TID 0000.0001) %MON forcing_empmr_mean           =  -2.3222894393256E-04
(PID.TID 0000.0001) %MON forcing_empmr_sd             =   3.4016480259440E-03
(PID.TID 0000.0001) %MON forcing_empmr_del2           =   1.3470637972043E-04
(PID.TID 0000.0001) %MON forcing_fu_max               =   3.4568991170467E-01
(PID.TID 0000.0001) %MON forcing_fu_min               =  -3.6701707672219E-01
(PID.TID 0000.0001) %MON forcing_fu_mean              =  -3.2613358967565E-03
(PID.TID 0000.0001) %MON forcing_fu_sd                =   6.1675852059444E-02
(PID.TID 0000.0001) %MON forcing_fu_del2              =   6.0844865258646E-04
(PID.TID 0000.0001) %MON forcing_fv_max               =   2.8622537162378E-01
(PID.TID 0000.0001) %MON forcing_fv_min               =  -2.5734647942303E-01
(PID.TID 0000.0001) %MON forcing_fv_mean              =  -1.4834939487122E-02
(PID.TID 0000.0001) %MON forcing_fv_sd                =   6.1043640305206E-02
(PID.TID 0000.0001) %MON forcing_fv_del2              =   5.3033206303704E-04
(PID.TID 0000.0001) %MON trAdv_CFL_u_max              =   2.3424820864362E-03
(PID.TID 0000.0001) %MON trAdv_CFL_v_max              =   1.3959288181104E-03
(PID.TID 0000.0001) %MON trAdv_CFL_w_max              =   1.7675172276646E-03
(PID.TID 0000.0001) %MON advcfl_uvel_max              =   2.3136449873155E-03
(PID.TID 0000.0001) %MON advcfl_vvel_max              =   1.3815930507730E-03
(PID.TID 0000.0001) %MON advcfl_wvel_max              =   2.6863611262778E-03
(PID.TID 0000.0001) %MON advcfl_W_hf_max              =   1.7675172276646E-03
(PID.TID 0000.0001) %MON pe_b_mean                    =   4.9972923778472E-04
(PID.TID 0000.0001) %MON ke_max                       =   2.2651765740350E-01
(PID.TID 0000.0001) %MON ke_mean                      =   1.6548131401980E-04
(PID.TID 0000.0001) %MON ke_vol                       =   1.3398137817774E+18
(PID.TID 0000.0001) %MON vort_r_min                   =  -4.1061530238416E-06
(PID.TID 0000.0001) %MON vort_r_max                   =   2.1197509062123E-06
(PID.TID 0000.0001) %MON vort_a_mean                  =  -2.0549865324846E-05
(PID.TID 0000.0001) %MON vort_a_sd                    =   7.5259728569964E-05
(PID.TID 0000.0001) %MON vort_p_mean                  =  -2.4783256169813E-05
(PID.TID 0000.0001) %MON vort_p_sd                    =   1.2811922736680E-04
(PID.TID 0000.0001) %MON surfExpan_theta_mean         =  -6.1791220602120E-06
(PID.TID 0000.0001) %MON surfExpan_salt_mean          =   1.2445321096933E-06
(PID.TID 0000.0001) // =======================================================
(PID.TID 0000.0001) // End MONITOR dynamic field statistics
(PID.TID 0000.0001) // =======================================================
(PID.TID 0000.0001) // =======================================================
(PID.TID 0000.0001) // Begin MONITOR SEAICE statistics
(PID.TID 0000.0001) // =======================================================
(PID.TID 0000.0001) %MON seaice_tsnumber              =                 72071
(PID.TID 0000.0001) %MON seaice_time_sec              =   6.4863900000000E+07
(PID.TID 0000.0001) %MON seaice_uice_max              =   4.7574964214204E-01
(PID.TID 0000.0001) %MON seaice_uice_min              =  -6.4148342204232E-01
(PID.TID 0000.0001) %MON seaice_uice_mean             =  -4.0748960027020E-03
(PID.TID 0000.0001) %MON seaice_uice_sd               =   6.1867919322433E-02
(PID.TID 0000.0001) %MON seaice_uice_del2             =   9.2581624539122E-04
(PID.TID 0000.0001) %MON seaice_vice_max              =   3.0564189155453E-01
(PID.TID 0000.0001) %MON seaice_vice_min              =  -4.7651329010588E-01
(PID.TID 0000.0001) %MON seaice_vice_mean             =  -1.4000634828688E-02
(PID.TID 0000.0001) %MON seaice_vice_sd               =   6.1725603462111E-02
(PID.TID 0000.0001) %MON seaice_vice_del2             =   8.4133228677574E-04
(PID.TID 0000.0001) %MON seaice_area_max              =   1.0000000000000E+00
(PID.TID 0000.0001) %MON seaice_area_min              =   0.0000000000000E+00
(PID.TID 0000.0001) %MON seaice_area_mean             =   6.8994752829096E-02
(PID.TID 0000.0001) %MON seaice_area_sd               =   2.3717594087232E-01
(PID.TID 0000.0001) %MON seaice_area_del2             =   1.7358053390707E-03
(PID.TID 0000.0001) %MON seaice_heff_max              =   8.5457179108475E+00
(PID.TID 0000.0001) %MON seaice_heff_min              =   0.0000000000000E+00
(PID.TID 0000.0001) %MON seaice_heff_mean             =   2.0599415678117E-01
(PID.TID 0000.0001) %MON seaice_heff_sd               =   9.8024946727374E-01
(PID.TID 0000.0001) %MON seaice_heff_del2             =   6.2344982004202E-03
(PID.TID 0000.0001) %MON seaice_hsnow_max             =   2.0319847479742E+00
(PID.TID 0000.0001) %MON seaice_hsnow_min             =   0.0000000000000E+00
(PID.TID 0000.0001) %MON seaice_hsnow_mean            =   2.2722011234733E-02
(PID.TID 0000.0001) %MON seaice_hsnow_sd              =   1.1937024534489E-01
(PID.TID 0000.0001) %MON seaice_hsnow_del2            =   1.4610136994183E-03
(PID.TID 0000.0001) // =======================================================
(PID.TID 0000.0001) // End MONITOR SEAICE statistics
(PID.TID 0000.0001) // =======================================================
 SEAICE_LSR: Residual Initial ipass,Uice,Vice=    1  3.83166752E-03  3.30362283E-03
 SEAICE_LSR (ipass=   1) iters,dU,Resid=     8  4.58334569E-05  2.44347505E-05
 SEAICE_LSR (ipass=   1) iters,dV,Resid=     8  4.18260930E-05  7.43349008E-06
 SEAICE_LSR: Residual Initial ipass,Uice,Vice=    2  2.98086504E-03  3.00246047E-03
 SEAICE_LSR (ipass=   2) iters,dU,Resid=     6  5.99984163E-05  3.14924433E-05
 SEAICE_LSR (ipass=   2) iters,dV,Resid=     6  7.86208170E-05  6.92475222E-06
 cg2d: Sum(rhs),rhsMax =  -7.37071096119078E+01  3.68435845306759E+01
(PID.TID 0000.0001)      cg2d_init_res =   2.04190559484496E-01
(PID.TID 0000.0001)      cg2d_iters(min,last) =      -1      10
(PID.TID 0000.0001)      cg2d_last_res =   8.66850217639749E-08
(PID.TID 0000.0001) // =======================================================
(PID.TID 0000.0001) // Begin MONITOR dynamic field statistics
(PID.TID 0000.0001) // =======================================================
(PID.TID 0000.0001) %MON time_tsnumber                =                 72072
(PID.TID 0000.0001) %MON time_secondsf                =   6.4864800000000E+07
(PID.TID 0000.0001) %MON dynstat_eta_max              =   1.2512499420694E+00
(PID.TID 0000.0001) %MON dynstat_eta_min              =  -2.0758862096628E+00
(PID.TID 0000.0001) %MON dynstat_eta_mean             =   3.1555308501592E-02
(PID.TID 0000.0001) %MON dynstat_eta_sd               =   6.1172648748994E-01
(PID.TID 0000.0001) %MON dynstat_eta_del2             =   1.6796749672777E-03
(PID.TID 0000.0001) %MON dynstat_uvel_max             =   4.4669276538237E-01
(PID.TID 0000.0001) %MON dynstat_uvel_min             =  -7.8127709530851E-01
(PID.TID 0000.0001) %MON dynstat_uvel_mean            =  -2.9096396996307E-04
(PID.TID 0000.0001) %MON dynstat_uvel_sd              =   1.3116775014567E-02
(PID.TID 0000.0001) %MON dynstat_uvel_del2            =   8.8739000627953E-05
(PID.TID 0000.0001) %MON dynstat_vvel_max             =   2.9259510356799E-01
(PID.TID 0000.0001) %MON dynstat_vvel_min             =  -4.3818515731956E-01
(PID.TID 0000.0001) %MON dynstat_vvel_mean            =   4.4366510042386E-04
(PID.TID 0000.0001) %MON dynstat_vvel_sd              =   1.3623117254820E-02
(PID.TID 0000.0001) %MON dynstat_vvel_del2            =   8.5774095963125E-05
(PID.TID 0000.0001) %MON dynstat_wvel_max             =   1.0370083570656E-04
(PID.TID 0000.0001) %MON dynstat_wvel_min             =  -1.9011741034922E-04
(PID.TID 0000.0001) %MON dynstat_wvel_mean            =  -1.5639101170597E-07
(PID.TID 0000.0001) %MON dynstat_wvel_sd              =   7.7605502888492E-06
(PID.TID 0000.0001) %MON dynstat_wvel_del2            =   6.9269136232519E-08
(PID.TID 0000.0001) %MON dynstat_theta_max            =   3.0923213257462E+01
(PID.TID 0000.0001) %MON dynstat_theta_min            =  -3.0092309771492E+00
(PID.TID 0000.0001) %MON dynstat_theta_mean           =   3.9091700210026E+00
(PID.TID 0000.0001) %MON dynstat_theta_sd             =   4.5715231488363E+00
(PID.TID 0000.0001) %MON dynstat_theta_del2           =   2.6401032070910E-03
(PID.TID 0000.0001) %MON dynstat_salt_max             =   4.1347153249501E+01
(PID.TID 0000.0001) %MON dynstat_salt_min             =   1.8519103309362E+01
(PID.TID 0000.0001) %MON dynstat_salt_mean            =   3.4771918826569E+01
(PID.TID 0000.0001) %MON dynstat_salt_sd              =   5.3212106992060E-01
(PID.TID 0000.0001) %MON dynstat_salt_del2            =   1.1023020305824E-03
(PID.TID 0000.0001) %MON dynstat_sst_max              =   3.0923213257462E+01
(PID.TID 0000.0001) %MON dynstat_sst_min              =  -1.9295093393373E+00
(PID.TID 0000.0001) %MON dynstat_sst_mean             =   1.8107822863337E+01
(PID.TID 0000.0001) %MON dynstat_sst_sd               =   9.8124337851976E+00
(PID.TID 0000.0001) %MON dynstat_sst_del2             =   1.5000475935888E-02
(PID.TID 0000.0001) %MON dynstat_sss_max              =   4.1347153249501E+01
(PID.TID 0000.0001) %MON dynstat_sss_min              =   1.8752250489644E+01
(PID.TID 0000.0001) %MON dynstat_sss_mean             =   3.4621917952206E+01
(PID.TID 0000.0001) %MON dynstat_sss_sd               =   1.4867755103542E+00
(PID.TID 0000.0001) %MON dynstat_sss_del2             =   1.2420231972776E-02
(PID.TID 0000.0001) %MON forcing_qnet_max             =   1.6957651367188E+03
(PID.TID 0000.0001) %MON forcing_qnet_min             =  -1.0766268310547E+03
(PID.TID 0000.0001) %MON forcing_qnet_mean            =  -1.7643980356112E+01
(PID.TID 0000.0001) %MON forcing_qnet_sd              =   2.1759992557345E+02
(PID.TID 0000.0001) %MON forcing_qnet_del2            =   3.4923056909760E+00
(PID.TID 0000.0001) %MON forcing_qsw_max              =   0.0000000000000E+00
(PID.TID 0000.0001) %MON forcing_qsw_min              =  -1.0688193591064E+02
(PID.TID 0000.0001) %MON forcing_qsw_mean             =  -1.6620784610568E+01
(PID.TID 0000.0001) %MON forcing_qsw_sd               =   2.8007288475633E+01
(PID.TID 0000.0001) %MON forcing_qsw_del2             =   1.4045479473336E-01
(PID.TID 0000.0001) %MON forcing_empmr_max            =   5.3167534060776E-03
(PID.TID 0000.0001) %MON forcing_empmr_min            =  -7.6437421143055E-02
(PID.TID 0000.0001) %MON forcing_empmr_mean           =  -2.2963222207804E-04
(PID.TID 0000.0001) %MON forcing_empmr_sd             =   3.3667846448513E-03
(PID.TID 0000.0001) %MON forcing_empmr_del2           =   1.3329935561425E-04
(PID.TID 0000.0001) %MON forcing_fu_max               =   3.4615435372109E-01
(PID.TID 0000.0001) %MON forcing_fu_min               =  -3.6894712503547E-01
(PID.TID 0000.0001) %MON forcing_fu_mean              =  -3.3095855852089E-03
(PID.TID 0000.0001) %MON forcing_fu_sd                =   6.1607098148833E-02
(PID.TID 0000.0001) %MON forcing_fu_del2              =   6.0734396992575E-04
(PID.TID 0000.0001) %MON forcing_fv_max               =   2.8650420821897E-01
(PID.TID 0000.0001) %MON forcing_fv_min               =  -2.5673441561178E-01
(PID.TID 0000.0001) %MON forcing_fv_mean              =  -1.4796501611586E-02
(PID.TID 0000.0001) %MON forcing_fv_sd                =   6.1031796508848E-02
(PID.TID 0000.0001) %MON forcing_fv_del2              =   5.2934269291206E-04
(PID.TID 0000.0001) %MON trAdv_CFL_u_max              =   2.3009148940295E-03
(PID.TID 0000.0001) %MON trAdv_CFL_v_max              =   1.2955012695897E-03
(PID.TID 0000.0001) %MON trAdv_CFL_w_max              =   1.7291510884398E-03
(PID.TID 0000.0001) %MON advcfl_uvel_max              =   2.2703983910707E-03
(PID.TID 0000.0001) %MON advcfl_vvel_max              =   1.2811246762391E-03
(PID.TID 0000.0001) %MON advcfl_wvel_max              =   2.6586929093237E-03
(PID.TID 0000.0001) %MON advcfl_W_hf_max              =   1.7291510884398E-03
(PID.TID 0000.0001) %MON pe_b_mean                    =   4.9983818369383E-04
(PID.TID 0000.0001) %MON ke_max                       =   2.2624292413359E-01
(PID.TID 0000.0001) %MON ke_mean                      =   1.6527404060690E-04
(PID.TID 0000.0001) %MON ke_vol                       =   1.3398138552600E+18
(PID.TID 0000.0001) %MON vort_r_min                   =  -3.9470864030875E-06
(PID.TID 0000.0001) %MON vort_r_max                   =   2.0745514802656E-06
(PID.TID 0000.0001) %MON vort_a_mean                  =  -2.0549865324846E-05
(PID.TID 0000.0001) %MON vort_a_sd                    =   7.5259724728735E-05
(PID.TID 0000.0001) %MON vort_p_mean                  =  -2.4783254620180E-05
(PID.TID 0000.0001) %MON vort_p_sd                    =   1.2811922924696E-04
(PID.TID 0000.0001) %MON surfExpan_theta_mean         =  -6.1238036250204E-06
(PID.TID 0000.0001) %MON surfExpan_salt_mean          =   1.2275201332055E-06
(PID.TID 0000.0001) // =======================================================
(PID.TID 0000.0001) // End MONITOR dynamic field statistics
(PID.TID 0000.0001) // =======================================================
(PID.TID 0000.0001) // =======================================================
(PID.TID 0000.0001) // Begin MONITOR SEAICE statistics
(PID.TID 0000.0001) // =======================================================
(PID.TID 0000.0001) %MON seaice_tsnumber              =                 72072
(PID.TID 0000.0001) %MON seaice_time_sec              =   6.4864800000000E+07
(PID.TID 0000.0001) %MON seaice_uice_max              =   4.5001332209783E-01
(PID.TID 0000.0001) %MON seaice_uice_min              =  -6.2965106675041E-01
(PID.TID 0000.0001) %MON seaice_uice_mean             =  -4.1296750869231E-03
(PID.TID 0000.0001) %MON seaice_uice_sd               =   6.1845935834497E-02
(PID.TID 0000.0001) %MON seaice_uice_del2             =   9.1694365309093E-04
(PID.TID 0000.0001) %MON seaice_vice_max              =   2.8273773541601E-01
(PID.TID 0000.0001) %MON seaice_vice_min              =  -4.4548554327737E-01
(PID.TID 0000.0001) %MON seaice_vice_mean             =  -1.3972589741453E-02
(PID.TID 0000.0001) %MON seaice_vice_sd               =   6.1559621728961E-02
(PID.TID 0000.0001) %MON seaice_vice_del2             =   8.2401789562518E-04
(PID.TID 0000.0001) %MON seaice_area_max              =   1.0000000000000E+00
(PID.TID 0000.0001) %MON seaice_area_min              =   0.0000000000000E+00
(PID.TID 0000.0001) %MON seaice_area_mean             =   6.8988382113832E-02
(PID.TID 0000.0001) %MON seaice_area_sd               =   2.3716033426281E-01
(PID.TID 0000.0001) %MON seaice_area_del2             =   1.7353264378061E-03
(PID.TID 0000.0001) %MON seaice_heff_max              =   8.5462025574493E+00
(PID.TID 0000.0001) %MON seaice_heff_min              =   0.0000000000000E+00
(PID.TID 0000.0001) %MON seaice_heff_mean             =   2.0598647151635E-01
(PID.TID 0000.0001) %MON seaice_heff_sd               =   9.8024680918500E-01
(PID.TID 0000.0001) %MON seaice_heff_del2             =   6.2341366309210E-03
(PID.TID 0000.0001) %MON seaice_hsnow_max             =   2.0319938218146E+00
(PID.TID 0000.0001) %MON seaice_hsnow_min             =   0.0000000000000E+00
(PID.TID 0000.0001) %MON seaice_hsnow_mean            =   2.2720313887901E-02
(PID.TID 0000.0001) %MON seaice_hsnow_sd              =   1.1936558858525E-01
(PID.TID 0000.0001) %MON seaice_hsnow_del2            =   1.4609691763812E-03
(PID.TID 0000.0001) // =======================================================
(PID.TID 0000.0001) // End MONITOR SEAICE statistics
(PID.TID 0000.0001) // =======================================================
 Compute Stats, Diag. #    211  SIarea    vol(   0 ): 1.456E+15  Parms: SM      M1      
 Compute Stats, Diag. #    214  SIheff    vol(   0 ): 1.456E+15  Parms: SM      M1      
 Compute Stats, Diag. #    216  SIhsnow   vol(   0 ): 1.456E+15  Parms: SM      M1      
 Compute Stats, Diag. #     83  sIceLoad  vol(   0 ): 1.456E+15  Parms: SM      U1      
 Compute Stats, Diag. #    220  SIuice    vol(   0 ): 1.383E+15  Parms: UU      M1      
 Compute Stats, Diag. #    221  SIvice    vol(   0 ): 1.391E+15  Parms: VV      M1      
 Compute Stats, Diag. #    222  SItaux    vol(   0 ): 1.383E+15  Parms: UU      U1      
 Compute Stats, Diag. #    223  SItauy    vol(   0 ): 1.391E+15  Parms: VV      U1      
 SEAICE_LSR: Residual Initial ipass,Uice,Vice=    1  3.44500161E-03  3.67807495E-03
 SEAICE_LSR (ipass=   1) iters,dU,Resid=     8  4.50307570E-05  2.19010797E-05
 SEAICE_LSR (ipass=   1) iters,dV,Resid=     8  4.16347440E-05  6.81955750E-06
 SEAICE_LSR: Residual Initial ipass,Uice,Vice=    2  2.81787475E-03  3.22259057E-03
 SEAICE_LSR (ipass=   2) iters,dU,Resid=     6  5.76717375E-05  2.81496865E-05
 SEAICE_LSR (ipass=   2) iters,dV,Resid=     6  7.64695945E-05  7.69260646E-06
 cg2d: Sum(rhs),rhsMax =  -7.35747499174615E+01  3.71419806052046E+01
(PID.TID 0000.0001)      cg2d_init_res =   1.95054313037301E-01
(PID.TID 0000.0001)      cg2d_iters(min,last) =      -1      10
(PID.TID 0000.0001)      cg2d_last_res =   8.77620541061361E-08
(PID.TID 0000.0001) // =======================================================
(PID.TID 0000.0001) // Begin MONITOR dynamic field statistics
(PID.TID 0000.0001) // =======================================================
(PID.TID 0000.0001) %MON time_tsnumber                =                 72073
(PID.TID 0000.0001) %MON time_secondsf                =   6.4865700000000E+07
(PID.TID 0000.0001) %MON dynstat_eta_max              =   1.2791714431090E+00
(PID.TID 0000.0001) %MON dynstat_eta_min              =  -2.0929125998367E+00
(PID.TID 0000.0001) %MON dynstat_eta_mean             =   3.1753750401034E-02
(PID.TID 0000.0001) %MON dynstat_eta_sd               =   6.1176961180549E-01
(PID.TID 0000.0001) %MON dynstat_eta_del2             =   1.7015567656372E-03
(PID.TID 0000.0001) %MON dynstat_uvel_max             =   4.0957563882608E-01
(PID.TID 0000.0001) %MON dynstat_uvel_min             =  -7.6305782991187E-01
(PID.TID 0000.0001) %MON dynstat_uvel_mean            =  -2.9763676640190E-04
(PID.TID 0000.0001) %MON dynstat_uvel_sd              =   1.3105768816174E-02
(PID.TID 0000.0001) %MON dynstat_uvel_del2            =   8.7859592972328E-05
(PID.TID 0000.0001) %MON dynstat_vvel_max             =   2.7579373362849E-01
(PID.TID 0000.0001) %MON dynstat_vvel_min             =  -4.0168554872161E-01
(PID.TID 0000.0001) %MON dynstat_vvel_mean            =   4.2371701276394E-04
(PID.TID 0000.0001) %MON dynstat_vvel_sd              =   1.3619995735535E-02
(PID.TID 0000.0001) %MON dynstat_vvel_del2            =   8.4784645700807E-05
(PID.TID 0000.0001) %MON dynstat_wvel_max             =   1.0554478845082E-04
(PID.TID 0000.0001) %MON dynstat_wvel_min             =  -1.9009701758659E-04
(PID.TID 0000.0001) %MON dynstat_wvel_mean            =  -1.4772374457054E-07
(PID.TID 0000.0001) %MON dynstat_wvel_sd              =   7.7522096940539E-06
(PID.TID 0000.0001) %MON dynstat_wvel_del2            =   6.9096266264600E-08
(PID.TID 0000.0001) %MON dynstat_theta_max            =   3.0923057214863E+01
(PID.TID 0000.0001) %MON dynstat_theta_min            =  -3.0095729836230E+00
(PID.TID 0000.0001) %MON dynstat_theta_mean           =   3.9091724763461E+00
(PID.TID 0000.0001) %MON dynstat_theta_sd             =   4.5715316383019E+00
(PID.TID 0000.0001) %MON dynstat_theta_del2           =   2.6399946969484E-03
(PID.TID 0000.0001) %MON dynstat_salt_max             =   4.1347111350626E+01
(PID.TID 0000.0001) %MON dynstat_salt_min             =   1.8519113381575E+01
(PID.TID 0000.0001) %MON dynstat_salt_mean            =   3.4771916984050E+01
(PID.TID 0000.0001) %MON dynstat_salt_sd              =   5.3213328343873E-01
(PID.TID 0000.0001) %MON dynstat_salt_del2            =   1.1051033114667E-03
(PID.TID 0000.0001) %MON dynstat_sst_max              =   3.0923057214863E+01
(PID.TID 0000.0001) %MON dynstat_sst_min              =  -1.9290873342313E+00
(PID.TID 0000.0001) %MON dynstat_sst_mean             =   1.8107905587837E+01
(PID.TID 0000.0001) %MON dynstat_sst_sd               =   9.8125354476192E+00
(PID.TID 0000.0001) %MON dynstat_sst_del2             =   1.4998622962498E-02
(PID.TID 0000.0001) %MON dynstat_sss_max              =   4.1347111350626E+01
(PID.TID 0000.0001) %MON dynstat_sss_min              =   1.8752267807655E+01
(PID.TID 0000.0001) %MON dynstat_sss_mean             =   3.4621777798112E+01
(PID.TID 0000.0001) %MON dynstat_sss_sd               =   1.4870889592506E+00
(PID.TID 0000.0001) %MON dynstat_sss_del2             =   1.2459524618525E-02
(PID.TID 0000.0001) %MON forcing_qnet_max             =   1.6758812255859E+03
(PID.TID 0000.0001) %MON forcing_qnet_min             =  -1.1813994140625E+03
(PID.TID 0000.0001) %MON forcing_qnet_mean            =  -2.0580422845624E+01
(PID.TID 0000.0001) %MON forcing_qnet_sd              =   2.1581537531814E+02
(PID.TID 0000.0001) %MON forcing_qnet_del2            =   3.4578674108137E+00
(PID.TID 0000.0001) %MON forcing_qsw_max              =   0.0000000000000E+00
(PID.TID 0000.0001) %MON forcing_qsw_min              =  -1.0722041124656E+02
(PID.TID 0000.0001) %MON forcing_qsw_mean             =  -1.7059372278296E+01
(PID.TID 0000.0001) %MON forcing_qsw_sd               =   2.7985903887468E+01
(PID.TID 0000.0001) %MON forcing_qsw_del2             =   1.4241492193359E-01
(PID.TID 0000.0001) %MON forcing_empmr_max            =   5.2620409987867E-03
(PID.TID 0000.0001) %MON forcing_empmr_min            =  -7.5650356709957E-02
(PID.TID 0000.0001) %MON forcing_empmr_mean           =  -2.2820818435964E-04
(PID.TID 0000.0001) %MON forcing_empmr_sd             =   3.3323042153092E-03
(PID.TID 0000.0001) %MON forcing_empmr_del2           =   1.3190821331901E-04
(PID.TID 0000.0001) %MON forcing_fu_max               =   3.4168433113551E-01
(PID.TID 0000.0001) %MON forcing_fu_min               =  -3.7363248111951E-01
(PID.TID 0000.0001) %MON forcing_fu_mean              =  -3.3537557839649E-03
(PID.TID 0000.0001) %MON forcing_fu_sd                =   6.1446989465228E-02
(PID.TID 0000.0001) %MON forcing_fu_del2              =   6.0607652732386E-04
(PID.TID 0000.0001) %MON forcing_fv_max               =   2.9957955615068E-01
(PID.TID 0000.0001) %MON forcing_fv_min               =  -2.5626914981922E-01
(PID.TID 0000.0001) %MON forcing_fv_mean              =  -1.4702617129506E-02
(PID.TID 0000.0001) %MON forcing_fv_sd                =   6.1110886704840E-02
(PID.TID 0000.0001) %MON forcing_fv_del2              =   5.2949093773274E-04
(PID.TID 0000.0001) %MON trAdv_CFL_u_max              =   2.2493343078343E-03
(PID.TID 0000.0001) %MON trAdv_CFL_v_max              =   1.1884543602773E-03
(PID.TID 0000.0001) %MON trAdv_CFL_w_max              =   1.6865643117297E-03
(PID.TID 0000.0001) %MON advcfl_uvel_max              =   2.2174530390421E-03
(PID.TID 0000.0001) %MON advcfl_vvel_max              =   1.1744105430313E-03
(PID.TID 0000.0001) %MON advcfl_wvel_max              =   2.6313167551289E-03
(PID.TID 0000.0001) %MON advcfl_W_hf_max              =   1.6865643117297E-03
(PID.TID 0000.0001) %MON pe_b_mean                    =   4.9992518161416E-04
(PID.TID 0000.0001) %MON ke_max                       =   2.2485883650738E-01
(PID.TID 0000.0001) %MON ke_mean                      =   1.6509580558793E-04
(PID.TID 0000.0001) %MON ke_vol                       =   1.3398139279210E+18
(PID.TID 0000.0001) %MON vort_r_min                   =  -3.7703060491784E-06
(PID.TID 0000.0001) %MON vort_r_max                   =   2.1389907572310E-06
(PID.TID 0000.0001) %MON vort_a_mean                  =  -2.0549865324846E-05
(PID.TID 0000.0001) %MON vort_a_sd                    =   7.5259720546828E-05
(PID.TID 0000.0001) %MON vort_p_mean                  =  -2.4783253091182E-05
(PID.TID 0000.0001) %MON vort_p_sd                    =   1.2811922920068E-04
(PID.TID 0000.0001) %MON surfExpan_theta_mean         =  -6.0844862501359E-06
(PID.TID 0000.0001) %MON surfExpan_salt_mean          =   1.2103994753849E-06
(PID.TID 0000.0001) // =======================================================
(PID.TID 0000.0001) // End MONITOR dynamic field statistics
(PID.TID 0000.0001) // =======================================================
(PID.TID 0000.0001) // =======================================================
(PID.TID 0000.0001) // Begin MONITOR SEAICE statistics
(PID.TID 0000.0001) // =======================================================
(PID.TID 0000.0001) %MON seaice_tsnumber              =                 72073
(PID.TID 0000.0001) %MON seaice_time_sec              =   6.4865700000000E+07
(PID.TID 0000.0001) %MON seaice_uice_max              =   4.1978520867766E-01
(PID.TID 0000.0001) %MON seaice_uice_min              =  -6.1424957995221E-01
(PID.TID 0000.0001) %MON seaice_uice_mean             =  -4.1955890840596E-03
(PID.TID 0000.0001) %MON seaice_uice_sd               =   6.1770026152409E-02
(PID.TID 0000.0001) %MON seaice_uice_del2             =   9.0792290715910E-04
(PID.TID 0000.0001) %MON seaice_vice_max              =   2.5890807989679E-01
(PID.TID 0000.0001) %MON seaice_vice_min              =  -4.1188050792871E-01
(PID.TID 0000.0001) %MON seaice_vice_mean             =  -1.3960665137655E-02
(PID.TID 0000.0001) %MON seaice_vice_sd               =   6.1460768400714E-02
(PID.TID 0000.0001) %MON seaice_vice_del2             =   8.1141370644651E-04
(PID.TID 0000.0001) %MON seaice_area_max              =   1.0000000000000E+00
(PID.TID 0000.0001) %MON seaice_area_min              =   0.0000000000000E+00
(PID.TID 0000.0001) %MON seaice_area_mean             =   6.8981641124575E-02
(PID.TID 0000.0001) %MON seaice_area_sd               =   2.3714320077317E-01
(PID.TID 0000.0001) %MON seaice_area_del2             =   1.7348576715046E-03
(PID.TID 0000.0001) %MON seaice_heff_max              =   8.5466746094264E+00
(PID.TID 0000.0001) %MON seaice_heff_min              =   0.0000000000000E+00
(PID.TID 0000.0001) %MON seaice_heff_mean             =   2.0597862968187E-01
(PID.TID 0000.0001) %MON seaice_heff_sd               =   9.8024340481182E-01
(PID.TID 0000.0001) %MON seaice_heff_del2             =   6.2337765999379E-03
(PID.TID 0000.0001) %MON seaice_hsnow_max             =   2.0320025670256E+00
(PID.TID 0000.0001) %MON seaice_hsnow_min             =   0.0000000000000E+00
(PID.TID 0000.0001) %MON seaice_hsnow_mean            =   2.2718630730444E-02
(PID.TID 0000.0001) %MON seaice_hsnow_sd              =   1.1936097261345E-01
(PID.TID 0000.0001) %MON seaice_hsnow_del2            =   1.4609217532793E-03
(PID.TID 0000.0001) // =======================================================
(PID.TID 0000.0001) // End MONITOR SEAICE statistics
(PID.TID 0000.0001) // =======================================================
 Computing Diagnostic #    211  SIarea       Counter:       1   Parms: SM      M1      
 Computing Diagnostic #    214  SIheff       Counter:       1   Parms: SM      M1      
 Computing Diagnostic #    216  SIhsnow      Counter:       1   Parms: SM      M1      
 Computing Diagnostic #     83  sIceLoad     Counter:       1   Parms: SM      U1      
 Computing Diagnostic #    220  SIuice       Counter:       1   Parms: UU      M1      
           Vector  Mate for  SIuice       Diagnostic #    221  SIvice   exists 
 Computing Diagnostic #    221  SIvice       Counter:       1   Parms: VV      M1      
           Vector  Mate for  SIvice       Diagnostic #    220  SIuice   exists 
 Computing Diagnostic #    222  SItaux       Counter:       1   Parms: UU      U1      
           Vector  Mate for  SItaux       Diagnostic #    223  SItauy   exists 
 Computing Diagnostic #    223  SItauy       Counter:       1   Parms: VV      U1      
           Vector  Mate for  SItauy       Diagnostic #    222  SItaux   exists 
 Computing Diagnostic #      1  SDIAG1       Counter:       1   Parms: SM      L1      
 Computing Diagnostic #    282  SIareaN      Counter:       1   Parms: SM      MX      
 Computing Diagnostic #    281  SIheffN      Counter:       1   Parms: SM      MX      
 Computing Diagnostic #    283  SIhsnowN     Counter:       1   Parms: SM      MX      
 SEAICE_LSR: Residual Initial ipass,Uice,Vice=    1  3.50325804E-03  3.57730376E-03
 SEAICE_LSR (ipass=   1) iters,dU,Resid=     8  4.35996086E-05  1.54550877E-05
 SEAICE_LSR (ipass=   1) iters,dV,Resid=     8  4.31688207E-05  7.72915828E-06
 SEAICE_LSR: Residual Initial ipass,Uice,Vice=    2  2.86213139E-03  3.15605841E-03
 SEAICE_LSR (ipass=   2) iters,dU,Resid=     6  5.47164872E-05  1.95098196E-05
 SEAICE_LSR (ipass=   2) iters,dV,Resid=     6  7.51756322E-05  9.76649713E-06
 cg2d: Sum(rhs),rhsMax =  -7.45257337158426E+01  3.68952912799187E+01
(PID.TID 0000.0001)      cg2d_init_res =   1.90267002288433E-01
(PID.TID 0000.0001)      cg2d_iters(min,last) =      -1      10
(PID.TID 0000.0001)      cg2d_last_res =   8.87869492523473E-08
(PID.TID 0000.0001) // =======================================================
(PID.TID 0000.0001) // Begin MONITOR dynamic field statistics
(PID.TID 0000.0001) // =======================================================
(PID.TID 0000.0001) %MON time_tsnumber                =                 72074
(PID.TID 0000.0001) %MON time_secondsf                =   6.4866600000000E+07
(PID.TID 0000.0001) %MON dynstat_eta_max              =   1.3009736612902E+00
(PID.TID 0000.0001) %MON dynstat_eta_min              =  -2.0792459236825E+00
(PID.TID 0000.0001) %MON dynstat_eta_mean             =   3.1950552828510E-02
(PID.TID 0000.0001) %MON dynstat_eta_sd               =   6.1179520649758E-01
(PID.TID 0000.0001) %MON dynstat_eta_del2             =   1.7121829515348E-03
(PID.TID 0000.0001) %MON dynstat_uvel_max             =   3.6857177729281E-01
(PID.TID 0000.0001) %MON dynstat_uvel_min             =  -7.4160915839309E-01
(PID.TID 0000.0001) %MON dynstat_uvel_mean            =  -3.0589675110436E-04
(PID.TID 0000.0001) %MON dynstat_uvel_sd              =   1.3092741014464E-02
(PID.TID 0000.0001) %MON dynstat_uvel_del2            =   8.7067098729416E-05
(PID.TID 0000.0001) %MON dynstat_vvel_max             =   2.7136239558891E-01
(PID.TID 0000.0001) %MON dynstat_vvel_min             =  -3.6331034441010E-01
(PID.TID 0000.0001) %MON dynstat_vvel_mean            =   4.0292346541502E-04
(PID.TID 0000.0001) %MON dynstat_vvel_sd              =   1.3621167462169E-02
(PID.TID 0000.0001) %MON dynstat_vvel_del2            =   8.4208546347605E-05
(PID.TID 0000.0001) %MON dynstat_wvel_max             =   1.1149639384658E-04
(PID.TID 0000.0001) %MON dynstat_wvel_min             =  -1.9007121992110E-04
(PID.TID 0000.0001) %MON dynstat_wvel_mean            =  -1.3868053346669E-07
(PID.TID 0000.0001) %MON dynstat_wvel_sd              =   7.7446349922929E-06
(PID.TID 0000.0001) %MON dynstat_wvel_del2            =   6.8956918312740E-08
(PID.TID 0000.0001) %MON dynstat_theta_max            =   3.0922893642461E+01
(PID.TID 0000.0001) %MON dynstat_theta_min            =  -3.0099430916320E+00
(PID.TID 0000.0001) %MON dynstat_theta_mean           =   3.9091750098150E+00
(PID.TID 0000.0001) %MON dynstat_theta_sd             =   4.5715404868113E+00
(PID.TID 0000.0001) %MON dynstat_theta_del2           =   2.6398833052920E-03
(PID.TID 0000.0001) %MON dynstat_salt_max             =   4.1347071450418E+01
(PID.TID 0000.0001) %MON dynstat_salt_min             =   1.8519123436449E+01
(PID.TID 0000.0001) %MON dynstat_salt_mean            =   3.4771915163397E+01
(PID.TID 0000.0001) %MON dynstat_salt_sd              =   5.3214531782945E-01
(PID.TID 0000.0001) %MON dynstat_salt_del2            =   1.1078437771294E-03
(PID.TID 0000.0001) %MON dynstat_sst_max              =   3.0922893642461E+01
(PID.TID 0000.0001) %MON dynstat_sst_min              =  -1.9286425526848E+00
(PID.TID 0000.0001) %MON dynstat_sst_mean             =   1.8107993112435E+01
(PID.TID 0000.0001) %MON dynstat_sst_sd               =   9.8126406155916E+00
(PID.TID 0000.0001) %MON dynstat_sst_del2             =   1.4996706604126E-02
(PID.TID 0000.0001) %MON dynstat_sss_max              =   4.1347071450418E+01
(PID.TID 0000.0001) %MON dynstat_sss_min              =   1.8752284917477E+01
(PID.TID 0000.0001) %MON dynstat_sss_mean             =   3.4621638661746E+01
(PID.TID 0000.0001) %MON dynstat_sss_sd               =   1.4873974967598E+00
(PID.TID 0000.0001) %MON dynstat_sss_del2             =   1.2497938862128E-02
(PID.TID 0000.0001) %MON forcing_qnet_max             =   1.6571839599609E+03
(PID.TID 0000.0001) %MON forcing_qnet_min             =  -1.3132457275391E+03
(PID.TID 0000.0001) %MON forcing_qnet_mean            =  -2.2204313708277E+01
(PID.TID 0000.0001) %MON forcing_qnet_sd              =   2.1500116948680E+02
(PID.TID 0000.0001) %MON forcing_qnet_del2            =   3.5292643926755E+00
(PID.TID 0000.0001) %MON forcing_qsw_max              =   0.0000000000000E+00
(PID.TID 0000.0001) %MON forcing_qsw_min              =  -1.0679389488826E+02
(PID.TID 0000.0001) %MON forcing_qsw_mean             =  -1.7267336541373E+01
(PID.TID 0000.0001) %MON forcing_qsw_sd               =   2.7944163193622E+01
(PID.TID 0000.0001) %MON forcing_qsw_del2             =   1.4323847087815E-01
(PID.TID 0000.0001) %MON forcing_empmr_max            =   5.2078207954764E-03
(PID.TID 0000.0001) %MON forcing_empmr_min            =  -7.4871681630611E-02
(PID.TID 0000.0001) %MON forcing_empmr_mean           =  -2.2632279159642E-04
(PID.TID 0000.0001) %MON forcing_empmr_sd             =   3.2981904795658E-03
(PID.TID 0000.0001) %MON forcing_empmr_del2           =   1.3055814670106E-04
(PID.TID 0000.0001) %MON forcing_fu_max               =   3.3412971813566E-01
(PID.TID 0000.0001) %MON forcing_fu_min               =  -3.6711849773352E-01
(PID.TID 0000.0001) %MON forcing_fu_mean              =  -3.3944469608852E-03
(PID.TID 0000.0001) %MON forcing_fu_sd                =   6.1114869805431E-02
(PID.TID 0000.0001) %MON forcing_fu_del2              =   6.0267205099385E-04
(PID.TID 0000.0001) %MON forcing_fv_max               =   2.9015139632449E-01
(PID.TID 0000.0001) %MON forcing_fv_min               =  -2.5605093781973E-01
(PID.TID 0000.0001) %MON forcing_fv_mean              =  -1.4696959040501E-02
(PID.TID 0000.0001) %MON forcing_fv_sd                =   6.1033575550454E-02
(PID.TID 0000.0001) %MON forcing_fv_del2              =   5.2708180515158E-04
(PID.TID 0000.0001) %MON trAdv_CFL_u_max              =   2.1880091739839E-03
(PID.TID 0000.0001) %MON trAdv_CFL_v_max              =   1.1782057894242E-03
(PID.TID 0000.0001) %MON trAdv_CFL_w_max              =   1.6400768500881E-03
(PID.TID 0000.0001) %MON advcfl_uvel_max              =   2.1551230032593E-03
(PID.TID 0000.0001) %MON advcfl_vvel_max              =   1.1221522422000E-03
(PID.TID 0000.0001) %MON advcfl_wvel_max              =   2.6042324045430E-03
(PID.TID 0000.0001) %MON advcfl_W_hf_max              =   1.6400768500881E-03
(PID.TID 0000.0001) %MON pe_b_mean                    =   4.9998357570029E-04
(PID.TID 0000.0001) %MON ke_max                       =   2.2244150170803E-01
(PID.TID 0000.0001) %MON ke_mean                      =   1.6494816104746E-04
(PID.TID 0000.0001) %MON ke_vol                       =   1.3398140001314E+18
(PID.TID 0000.0001) %MON vort_r_min                   =  -3.5770029238420E-06
(PID.TID 0000.0001) %MON vort_r_max                   =   2.2338836405483E-06
(PID.TID 0000.0001) %MON vort_a_mean                  =  -2.0549865324846E-05
(PID.TID 0000.0001) %MON vort_a_sd                    =   7.5259716083336E-05
(PID.TID 0000.0001) %MON vort_p_mean                  =  -2.4783251579050E-05
(PID.TID 0000.0001) %MON vort_p_sd                    =   1.2811922779637E-04
(PID.TID 0000.0001) %MON surfExpan_theta_mean         =  -6.0231934351587E-06
(PID.TID 0000.0001) %MON surfExpan_salt_mean          =   1.1939051440311E-06
(PID.TID 0000.0001) // =======================================================
(PID.TID 0000.0001) // End MONITOR dynamic field statistics
(PID.TID 0000.0001) // =======================================================
(PID.TID 0000.0001) // =======================================================
(PID.TID 0000.0001) // Begin MONITOR SEAICE statistics
(PID.TID 0000.0001) // =======================================================
(PID.TID 0000.0001) %MON seaice_tsnumber              =                 72074
(PID.TID 0000.0001) %MON seaice_time_sec              =   6.4866600000000E+07
(PID.TID 0000.0001) %MON seaice_uice_max              =   3.8583606687974E-01
(PID.TID 0000.0001) %MON seaice_uice_min              =  -5.9550102054519E-01
(PID.TID 0000.0001) %MON seaice_uice_mean             =  -4.2888062327835E-03
(PID.TID 0000.0001) %MON seaice_uice_sd               =   6.1625538953086E-02
(PID.TID 0000.0001) %MON seaice_uice_del2             =   8.9839478045114E-04
(PID.TID 0000.0001) %MON seaice_vice_max              =   2.3494274528600E-01
(PID.TID 0000.0001) %MON seaice_vice_min              =  -3.7596641131846E-01
(PID.TID 0000.0001) %MON seaice_vice_mean             =  -1.3943401943469E-02
(PID.TID 0000.0001) %MON seaice_vice_sd               =   6.1389226046980E-02
(PID.TID 0000.0001) %MON seaice_vice_del2             =   8.0252557554682E-04
(PID.TID 0000.0001) %MON seaice_area_max              =   1.0000000000000E+00
(PID.TID 0000.0001) %MON seaice_area_min              =   0.0000000000000E+00
(PID.TID 0000.0001) %MON seaice_area_mean             =   6.8974863858189E-02
(PID.TID 0000.0001) %MON seaice_area_sd               =   2.3712599190789E-01
(PID.TID 0000.0001) %MON seaice_area_del2             =   1.7343941346382E-03
(PID.TID 0000.0001) %MON seaice_heff_max              =   8.5471331243016E+00
(PID.TID 0000.0001) %MON seaice_heff_min              =   0.0000000000000E+00
(PID.TID 0000.0001) %MON seaice_heff_mean             =   2.0597062488128E-01
(PID.TID 0000.0001) %MON seaice_heff_sd               =   9.8023932637679E-01
(PID.TID 0000.0001) %MON seaice_heff_del2             =   6.2334211266070E-03
(PID.TID 0000.0001) %MON seaice_hsnow_max             =   2.0320111252435E+00
(PID.TID 0000.0001) %MON seaice_hsnow_min             =   0.0000000000000E+00
(PID.TID 0000.0001) %MON seaice_hsnow_mean            =   2.2716960547388E-02
(PID.TID 0000.0001) %MON seaice_hsnow_sd              =   1.1935639976123E-01
(PID.TID 0000.0001) %MON seaice_hsnow_del2            =   1.4608729509528E-03
(PID.TID 0000.0001) // =======================================================
(PID.TID 0000.0001) // End MONITOR SEAICE statistics
(PID.TID 0000.0001) // =======================================================
 SEAICE_LSR: Residual Initial ipass,Uice,Vice=    1  3.55501669E-03  3.34474724E-03
 SEAICE_LSR (ipass=   1) iters,dU,Resid=     8  4.16880904E-05  1.13142034E-05
 SEAICE_LSR (ipass=   1) iters,dV,Resid=     8  4.83228494E-05  8.48764437E-06
 SEAICE_LSR: Residual Initial ipass,Uice,Vice=    2  2.87347272E-03  2.89795964E-03
 SEAICE_LSR (ipass=   2) iters,dU,Resid=     6  5.11199224E-05  1.35384743E-05
 SEAICE_LSR (ipass=   2) iters,dV,Resid=     6  7.61891571E-05  1.14333666E-05
 cg2d: Sum(rhs),rhsMax =  -7.65695590600085E+01  3.61301873857206E+01
(PID.TID 0000.0001)      cg2d_init_res =   1.89765191756612E-01
(PID.TID 0000.0001)      cg2d_iters(min,last) =      -1      10
(PID.TID 0000.0001)      cg2d_last_res =   9.00453904354915E-08
(PID.TID 0000.0001) // =======================================================
(PID.TID 0000.0001) // Begin MONITOR dynamic field statistics
(PID.TID 0000.0001) // =======================================================
(PID.TID 0000.0001) %MON time_tsnumber                =                 72075
(PID.TID 0000.0001) %MON time_secondsf                =   6.4867500000000E+07
(PID.TID 0000.0001) %MON dynstat_eta_max              =   1.3163554221692E+00
(PID.TID 0000.0001) %MON dynstat_eta_min              =  -2.0363856842520E+00
(PID.TID 0000.0001) %MON dynstat_eta_mean             =   3.2146043893010E-02
(PID.TID 0000.0001) %MON dynstat_eta_sd               =   6.1180188790816E-01
(PID.TID 0000.0001) %MON dynstat_eta_del2             =   1.7111872279231E-03
(PID.TID 0000.0001) %MON dynstat_uvel_max             =   3.2437220314786E-01
(PID.TID 0000.0001) %MON dynstat_uvel_min             =  -7.1708213268181E-01
(PID.TID 0000.0001) %MON dynstat_uvel_mean            =  -3.1563473765424E-04
(PID.TID 0000.0001) %MON dynstat_uvel_sd              =   1.3078201846860E-02
(PID.TID 0000.0001) %MON dynstat_uvel_del2            =   8.6376331900223E-05
(PID.TID 0000.0001) %MON dynstat_vvel_max             =   2.6697439381312E-01
(PID.TID 0000.0001) %MON dynstat_vvel_min             =  -3.2333818872663E-01
(PID.TID 0000.0001) %MON dynstat_vvel_mean            =   3.8149493077757E-04
(PID.TID 0000.0001) %MON dynstat_vvel_sd              =   1.3626126402508E-02
(PID.TID 0000.0001) %MON dynstat_vvel_del2            =   8.4034126258680E-05
(PID.TID 0000.0001) %MON dynstat_wvel_max             =   1.1626138657469E-04
(PID.TID 0000.0001) %MON dynstat_wvel_min             =  -1.9005122501383E-04
(PID.TID 0000.0001) %MON dynstat_wvel_mean            =  -1.2953778324928E-07
(PID.TID 0000.0001) %MON dynstat_wvel_sd              =   7.7365467290951E-06
(PID.TID 0000.0001) %MON dynstat_wvel_del2            =   6.8836584490940E-08
(PID.TID 0000.0001) %MON dynstat_theta_max            =   3.0922722363445E+01
(PID.TID 0000.0001) %MON dynstat_theta_min            =  -3.0103404135652E+00
(PID.TID 0000.0001) %MON dynstat_theta_mean           =   3.9091776214274E+00
(PID.TID 0000.0001) %MON dynstat_theta_sd             =   4.5715496882545E+00
(PID.TID 0000.0001) %MON dynstat_theta_del2           =   2.6397698054897E-03
(PID.TID 0000.0001) %MON dynstat_salt_max             =   4.1347032789088E+01
(PID.TID 0000.0001) %MON dynstat_salt_min             =   1.8519133476713E+01
(PID.TID 0000.0001) %MON dynstat_salt_mean            =   3.4771913366998E+01
(PID.TID 0000.0001) %MON dynstat_salt_sd              =   5.3215719033793E-01
(PID.TID 0000.0001) %MON dynstat_salt_del2            =   1.1105277374887E-03
(PID.TID 0000.0001) %MON dynstat_sst_max              =   3.0922722363445E+01
(PID.TID 0000.0001) %MON dynstat_sst_min              =  -1.9281738927364E+00
(PID.TID 0000.0001) %MON dynstat_sst_mean             =   1.8108086247349E+01
(PID.TID 0000.0001) %MON dynstat_sst_sd               =   9.8127496023745E+00
(PID.TID 0000.0001) %MON dynstat_sst_del2             =   1.4994723776048E-02
(PID.TID 0000.0001) %MON dynstat_sss_max              =   4.1347032789088E+01
(PID.TID 0000.0001) %MON dynstat_sss_min              =   1.8752301679311E+01
(PID.TID 0000.0001) %MON dynstat_sss_mean             =   3.4621501132453E+01
(PID.TID 0000.0001) %MON dynstat_sss_sd               =   1.4877015164017E+00
(PID.TID 0000.0001) %MON dynstat_sss_del2             =   1.2535538827231E-02
(PID.TID 0000.0001) %MON forcing_qnet_max             =   1.6377718505859E+03
(PID.TID 0000.0001) %MON forcing_qnet_min             =  -1.6308084716797E+03
(PID.TID 0000.0001) %MON forcing_qnet_mean            =  -2.3752805802313E+01
(PID.TID 0000.0001) %MON forcing_qnet_sd              =   2.1432037536172E+02
(PID.TID 0000.0001) %MON forcing_qnet_del2            =   3.6571656609276E+00
(PID.TID 0000.0001) %MON forcing_qsw_max              =   0.0000000000000E+00
(PID.TID 0000.0001) %MON forcing_qsw_min              =  -1.0593637195864E+02
(PID.TID 0000.0001) %MON forcing_qsw_mean             =  -1.7436112308271E+01
(PID.TID 0000.0001) %MON forcing_qsw_sd               =   2.7855309989695E+01
(PID.TID 0000.0001) %MON forcing_qsw_del2             =   1.4379821732797E-01
(PID.TID 0000.0001) %MON forcing_empmr_max            =   5.1541905850172E-03
(PID.TID 0000.0001) %MON forcing_empmr_min            =  -7.4100561439991E-02
(PID.TID 0000.0001) %MON forcing_empmr_mean           =  -2.2481472417542E-04
(PID.TID 0000.0001) %MON forcing_empmr_sd             =   3.2645582396455E-03
(PID.TID 0000.0001) %MON forcing_empmr_del2           =   1.2922089792904E-04
(PID.TID 0000.0001) %MON forcing_fu_max               =   3.2690327841255E-01
(PID.TID 0000.0001) %MON forcing_fu_min               =  -3.6463911065901E-01
(PID.TID 0000.0001) %MON forcing_fu_mean              =  -3.4711038008554E-03
(PID.TID 0000.0001) %MON forcing_fu_sd                =   6.0733953544789E-02
(PID.TID 0000.0001) %MON forcing_fu_del2              =   5.9934772802229E-04
(PID.TID 0000.0001) %MON forcing_fv_max               =   2.8719400190266E-01
(PID.TID 0000.0001) %MON forcing_fv_min               =  -2.5534714921196E-01
(PID.TID 0000.0001) %MON forcing_fv_mean              =  -1.4710287232242E-02
(PID.TID 0000.0001) %MON forcing_fv_sd                =   6.0922730197415E-02
(PID.TID 0000.0001) %MON forcing_fv_del2              =   5.2510519280219E-04
(PID.TID 0000.0001) %MON trAdv_CFL_u_max              =   2.1173438877364E-03
(PID.TID 0000.0001) %MON trAdv_CFL_v_max              =   1.1807147242412E-03
(PID.TID 0000.0001) %MON trAdv_CFL_w_max              =   1.5900367814559E-03
(PID.TID 0000.0001) %MON advcfl_uvel_max              =   2.0838472420127E-03
(PID.TID 0000.0001) %MON advcfl_vvel_max              =   1.1311059040028E-03
(PID.TID 0000.0001) %MON advcfl_wvel_max              =   2.5774108326953E-03
(PID.TID 0000.0001) %MON advcfl_W_hf_max              =   1.5900367814559E-03
(PID.TID 0000.0001) %MON pe_b_mean                    =   5.0001113251064E-04
(PID.TID 0000.0001) %MON ke_max                       =   2.1908706442839E-01
(PID.TID 0000.0001) %MON ke_mean                      =   1.6483105404880E-04
(PID.TID 0000.0001) %MON ke_vol                       =   1.3398140717452E+18
(PID.TID 0000.0001) %MON vort_r_min                   =  -3.3685654041889E-06
(PID.TID 0000.0001) %MON vort_r_max                   =   2.3232136725858E-06
(PID.TID 0000.0001) %MON vort_a_mean                  =  -2.0549865324846E-05
(PID.TID 0000.0001) %MON vort_a_sd                    =   7.5259711401661E-05
(PID.TID 0000.0001) %MON vort_p_mean                  =  -2.4783250090086E-05
(PID.TID 0000.0001) %MON vort_p_sd                    =   1.2811922554104E-04
(PID.TID 0000.0001) %MON surfExpan_theta_mean         =  -5.9582192270033E-06
(PID.TID 0000.0001) %MON surfExpan_salt_mean          =   1.1778149140011E-06
(PID.TID 0000.0001) // =======================================================
(PID.TID 0000.0001) // End MONITOR dynamic field statistics
(PID.TID 0000.0001) // =======================================================
(PID.TID 0000.0001) // =======================================================
(PID.TID 0000.0001) // Begin MONITOR SEAICE statistics
(PID.TID 0000.0001) // =======================================================
(PID.TID 0000.0001) %MON seaice_tsnumber              =                 72075
(PID.TID 0000.0001) %MON seaice_time_sec              =   6.4867500000000E+07
(PID.TID 0000.0001) %MON seaice_uice_max              =   3.4903062166106E-01
(PID.TID 0000.0001) %MON seaice_uice_min              =  -5.7374313549470E-01
(PID.TID 0000.0001) %MON seaice_uice_mean             =  -4.3916524465641E-03
(PID.TID 0000.0001) %MON seaice_uice_sd               =   6.1449456290302E-02
(PID.TID 0000.0001) %MON seaice_uice_del2             =   8.8979078736370E-04
(PID.TID 0000.0001) %MON seaice_vice_max              =   2.1163374782500E-01
(PID.TID 0000.0001) %MON seaice_vice_min              =  -3.3805052726392E-01
(PID.TID 0000.0001) %MON seaice_vice_mean             =  -1.3923538038890E-02
(PID.TID 0000.0001) %MON seaice_vice_sd               =   6.1369901263851E-02
(PID.TID 0000.0001) %MON seaice_vice_del2             =   7.9801004769202E-04
(PID.TID 0000.0001) %MON seaice_area_max              =   1.0000000000000E+00
(PID.TID 0000.0001) %MON seaice_area_min              =   0.0000000000000E+00
(PID.TID 0000.0001) %MON seaice_area_mean             =   6.8968071640280E-02
(PID.TID 0000.0001) %MON seaice_area_sd               =   2.3710868186433E-01
(PID.TID 0000.0001) %MON seaice_area_del2             =   1.7339312167081E-03
(PID.TID 0000.0001) %MON seaice_heff_max              =   8.5475789777027E+00
(PID.TID 0000.0001) %MON seaice_heff_min              =   0.0000000000000E+00
(PID.TID 0000.0001) %MON seaice_heff_mean             =   2.0596247015956E-01
(PID.TID 0000.0001) %MON seaice_heff_sd               =   9.8023459892303E-01
(PID.TID 0000.0001) %MON seaice_heff_del2             =   6.2330702566494E-03
(PID.TID 0000.0001) %MON seaice_hsnow_max             =   2.0320210801793E+00
(PID.TID 0000.0001) %MON seaice_hsnow_min             =   0.0000000000000E+00
(PID.TID 0000.0001) %MON seaice_hsnow_mean            =   2.2715307508306E-02
(PID.TID 0000.0001) %MON seaice_hsnow_sd              =   1.1935186491410E-01
(PID.TID 0000.0001) %MON seaice_hsnow_del2            =   1.4608241385414E-03
(PID.TID 0000.0001) // =======================================================
(PID.TID 0000.0001) // End MONITOR SEAICE statistics
(PID.TID 0000.0001) // =======================================================
 SEAICE_LSR: Residual Initial ipass,Uice,Vice=    1  3.65643795E-03  3.10786286E-03
 SEAICE_LSR (ipass=   1) iters,dU,Resid=     8  3.94318105E-05  8.84201049E-06
 SEAICE_LSR (ipass=   1) iters,dV,Resid=     8  5.43969466E-05  9.44206154E-06
 SEAICE_LSR: Residual Initial ipass,Uice,Vice=    2  2.91202881E-03  2.68561288E-03
 SEAICE_LSR (ipass=   2) iters,dU,Resid=     6  4.63317022E-05  1.06270860E-05
 SEAICE_LSR (ipass=   2) iters,dV,Resid=     6  7.27484882E-05  1.30865124E-05
 cg2d: Sum(rhs),rhsMax =  -7.70552830365617E+01  3.61188228273014E+01
(PID.TID 0000.0001)      cg2d_init_res =   1.87009662118806E-01
(PID.TID 0000.0001)      cg2d_iters(min,last) =      -1      10
(PID.TID 0000.0001)      cg2d_last_res =   8.84584979434515E-08
(PID.TID 0000.0001) // =======================================================
(PID.TID 0000.0001) // Begin MONITOR dynamic field statistics
(PID.TID 0000.0001) // =======================================================
(PID.TID 0000.0001) %MON time_tsnumber                =                 72076
(PID.TID 0000.0001) %MON time_secondsf                =   6.4868400000000E+07
(PID.TID 0000.0001) %MON dynstat_eta_max              =   1.3250393076748E+00
(PID.TID 0000.0001) %MON dynstat_eta_min              =  -1.9662222737606E+00
(PID.TID 0000.0001) %MON dynstat_eta_mean             =   3.2339788903250E-02
(PID.TID 0000.0001) %MON dynstat_eta_sd               =   6.1178858800604E-01
(PID.TID 0000.0001) %MON dynstat_eta_del2             =   1.6988044369739E-03
(PID.TID 0000.0001) %MON dynstat_uvel_max             =   3.1358727849407E-01
(PID.TID 0000.0001) %MON dynstat_uvel_min             =  -6.8966788785135E-01
(PID.TID 0000.0001) %MON dynstat_uvel_mean            =  -3.2669978424025E-04
(PID.TID 0000.0001) %MON dynstat_uvel_sd              =   1.3062724412029E-02
(PID.TID 0000.0001) %MON dynstat_uvel_del2            =   8.5796929019468E-05
(PID.TID 0000.0001) %MON dynstat_vvel_max             =   2.6068311908639E-01
(PID.TID 0000.0001) %MON dynstat_vvel_min             =  -3.1683902569540E-01
(PID.TID 0000.0001) %MON dynstat_vvel_mean            =   3.5965262851578E-04
(PID.TID 0000.0001) %MON dynstat_vvel_sd              =   1.3634180442416E-02
(PID.TID 0000.0001) %MON dynstat_vvel_del2            =   8.4215366039283E-05
(PID.TID 0000.0001) %MON dynstat_wvel_max             =   1.1982328546247E-04
(PID.TID 0000.0001) %MON dynstat_wvel_min             =  -1.9003315860413E-04
(PID.TID 0000.0001) %MON dynstat_wvel_mean            =  -1.2000187309962E-07
(PID.TID 0000.0001) %MON dynstat_wvel_sd              =   7.7279188031380E-06
(PID.TID 0000.0001) %MON dynstat_wvel_del2            =   6.8720608839571E-08
(PID.TID 0000.0001) %MON dynstat_theta_max            =   3.0922543155933E+01
(PID.TID 0000.0001) %MON dynstat_theta_min            =  -3.0107634985318E+00
(PID.TID 0000.0001) %MON dynstat_theta_mean           =   3.9091803075898E+00
(PID.TID 0000.0001) %MON dynstat_theta_sd             =   4.5715592353199E+00
(PID.TID 0000.0001) %MON dynstat_theta_del2           =   2.6396533763286E-03
(PID.TID 0000.0001) %MON dynstat_salt_max             =   4.1346994923439E+01
(PID.TID 0000.0001) %MON dynstat_salt_min             =   1.8519143504948E+01
(PID.TID 0000.0001) %MON dynstat_salt_mean            =   3.4771911603944E+01
(PID.TID 0000.0001) %MON dynstat_salt_sd              =   5.3216891157721E-01
(PID.TID 0000.0001) %MON dynstat_salt_del2            =   1.1131566811079E-03
(PID.TID 0000.0001) %MON dynstat_sst_max              =   3.0922543155933E+01
(PID.TID 0000.0001) %MON dynstat_sst_min              =  -1.9276747909475E+00
(PID.TID 0000.0001) %MON dynstat_sst_mean             =   1.8108185387288E+01
(PID.TID 0000.0001) %MON dynstat_sst_sd               =   9.8128624523000E+00
(PID.TID 0000.0001) %MON dynstat_sst_del2             =   1.4992647849350E-02
(PID.TID 0000.0001) %MON dynstat_sss_max              =   4.1346994923439E+01
(PID.TID 0000.0001) %MON dynstat_sss_min              =   1.8752318106870E+01
(PID.TID 0000.0001) %MON dynstat_sss_mean             =   3.4621366002610E+01
(PID.TID 0000.0001) %MON dynstat_sss_sd               =   1.4880012988586E+00
(PID.TID 0000.0001) %MON dynstat_sss_del2             =   1.2572347230483E-02
(PID.TID 0000.0001) %MON forcing_qnet_max             =   1.6195249023438E+03
(PID.TID 0000.0001) %MON forcing_qnet_min             =  -2.2989650878906E+03
(PID.TID 0000.0001) %MON forcing_qnet_mean            =  -2.5340607577517E+01
(PID.TID 0000.0001) %MON forcing_qnet_sd              =   2.1452851798264E+02
(PID.TID 0000.0001) %MON forcing_qnet_del2            =   3.9493077074845E+00
(PID.TID 0000.0001) %MON forcing_qsw_max              =   0.0000000000000E+00
(PID.TID 0000.0001) %MON forcing_qsw_min              =  -1.0541320811634E+02
(PID.TID 0000.0001) %MON forcing_qsw_mean             =  -1.7554300828155E+01
(PID.TID 0000.0001) %MON forcing_qsw_sd               =   2.7728104039904E+01
(PID.TID 0000.0001) %MON forcing_qsw_del2             =   1.4409701919757E-01
(PID.TID 0000.0001) %MON forcing_empmr_max            =   5.1010525785387E-03
(PID.TID 0000.0001) %MON forcing_empmr_min            =  -7.3337838053703E-02
(PID.TID 0000.0001) %MON forcing_empmr_mean           =  -2.2280676177620E-04
(PID.TID 0000.0001) %MON forcing_empmr_sd             =   3.2314563160533E-03
(PID.TID 0000.0001) %MON forcing_empmr_del2           =   1.2788743814596E-04
(PID.TID 0000.0001) %MON forcing_fu_max               =   3.1726862341327E-01
(PID.TID 0000.0001) %MON forcing_fu_min               =  -3.5959586887060E-01
(PID.TID 0000.0001) %MON forcing_fu_mean              =  -3.5743136811349E-03
(PID.TID 0000.0001) %MON forcing_fu_sd                =   6.0420205867990E-02
(PID.TID 0000.0001) %MON forcing_fu_del2              =   5.9564073111355E-04
(PID.TID 0000.0001) %MON forcing_fv_max               =   2.8099168926287E-01
(PID.TID 0000.0001) %MON forcing_fv_min               =  -2.5572474880205E-01
(PID.TID 0000.0001) %MON forcing_fv_mean              =  -1.4697667036802E-02
(PID.TID 0000.0001) %MON forcing_fv_sd                =   6.0860409320223E-02
(PID.TID 0000.0001) %MON forcing_fv_del2              =   5.2351725361749E-04
(PID.TID 0000.0001) %MON trAdv_CFL_u_max              =   2.0378720983667E-03
(PID.TID 0000.0001) %MON trAdv_CFL_v_max              =   1.1829214495182E-03
(PID.TID 0000.0001) %MON trAdv_CFL_w_max              =   1.5368264140524E-03
(PID.TID 0000.0001) %MON advcfl_uvel_max              =   2.0041811955751E-03
(PID.TID 0000.0001) %MON advcfl_vvel_max              =   1.1398384673649E-03
(PID.TID 0000.0001) %MON advcfl_wvel_max              =   2.5508813236071E-03
(PID.TID 0000.0001) %MON advcfl_W_hf_max              =   1.5368264140524E-03
(PID.TID 0000.0001) %MON pe_b_mean                    =   5.0000607058113E-04
(PID.TID 0000.0001) %MON ke_max                       =   2.1490597229175E-01
(PID.TID 0000.0001) %MON ke_mean                      =   1.6474282536446E-04
(PID.TID 0000.0001) %MON ke_vol                       =   1.3398141428818E+18
(PID.TID 0000.0001) %MON vort_r_min                   =  -3.1465684000654E-06
(PID.TID 0000.0001) %MON vort_r_max                   =   2.4062470637670E-06
(PID.TID 0000.0001) %MON vort_a_mean                  =  -2.0549865324846E-05
(PID.TID 0000.0001) %MON vort_a_sd                    =   7.5259706572432E-05
(PID.TID 0000.0001) %MON vort_p_mean                  =  -2.4783248625669E-05
(PID.TID 0000.0001) %MON vort_p_sd                    =   1.2811922287273E-04
(PID.TID 0000.0001) %MON surfExpan_theta_mean         =  -5.8678745456969E-06
(PID.TID 0000.0001) %MON surfExpan_salt_mean          =   1.1624288003473E-06
(PID.TID 0000.0001) // =======================================================
(PID.TID 0000.0001) // End MONITOR dynamic field statistics
(PID.TID 0000.0001) // =======================================================
(PID.TID 0000.0001) // =======================================================
(PID.TID 0000.0001) // Begin MONITOR SEAICE statistics
(PID.TID 0000.0001) // =======================================================
(PID.TID 0000.0001) %MON seaice_tsnumber              =                 72076
(PID.TID 0000.0001) %MON seaice_time_sec              =   6.4868400000000E+07
(PID.TID 0000.0001) %MON seaice_uice_max              =   3.1070951865160E-01
(PID.TID 0000.0001) %MON seaice_uice_min              =  -5.4946471265259E-01
(PID.TID 0000.0001) %MON seaice_uice_mean             =  -4.5085162597168E-03
(PID.TID 0000.0001) %MON seaice_uice_sd               =   6.1232924110921E-02
(PID.TID 0000.0001) %MON seaice_uice_del2             =   8.8160989554817E-04
(PID.TID 0000.0001) %MON seaice_vice_max              =   2.0614546963516E-01
(PID.TID 0000.0001) %MON seaice_vice_min              =  -3.1505571065563E-01
(PID.TID 0000.0001) %MON seaice_vice_mean             =  -1.3916200701352E-02
(PID.TID 0000.0001) %MON seaice_vice_sd               =   6.1387070647035E-02
(PID.TID 0000.0001) %MON seaice_vice_del2             =   7.9764843896988E-04
(PID.TID 0000.0001) %MON seaice_area_max              =   1.0000000000000E+00
(PID.TID 0000.0001) %MON seaice_area_min              =   0.0000000000000E+00
(PID.TID 0000.0001) %MON seaice_area_mean             =   6.8961263685573E-02
(PID.TID 0000.0001) %MON seaice_area_sd               =   2.3709112429496E-01
(PID.TID 0000.0001) %MON seaice_area_del2             =   1.7334303495438E-03
(PID.TID 0000.0001) %MON seaice_heff_max              =   8.5480112346346E+00
(PID.TID 0000.0001) %MON seaice_heff_min              =   0.0000000000000E+00
(PID.TID 0000.0001) %MON seaice_heff_mean             =   2.0595416705364E-01
(PID.TID 0000.0001) %MON seaice_heff_sd               =   9.8022923394466E-01
(PID.TID 0000.0001) %MON seaice_heff_del2             =   6.2327233517646E-03
(PID.TID 0000.0001) %MON seaice_hsnow_max             =   2.0320313708566E+00
(PID.TID 0000.0001) %MON seaice_hsnow_min             =   0.0000000000000E+00
(PID.TID 0000.0001) %MON seaice_hsnow_mean            =   2.2713647462861E-02
(PID.TID 0000.0001) %MON seaice_hsnow_sd              =   1.1934730326404E-01
(PID.TID 0000.0001) %MON seaice_hsnow_del2            =   1.4607737292046E-03
(PID.TID 0000.0001) // =======================================================
(PID.TID 0000.0001) // End MONITOR SEAICE statistics
(PID.TID 0000.0001) // =======================================================
 Compute Stats, Diag. #    211  SIarea    vol(   0 ): 1.456E+15  Parms: SM      M1      
 Compute Stats, Diag. #    214  SIheff    vol(   0 ): 1.456E+15  Parms: SM      M1      
 Compute Stats, Diag. #    216  SIhsnow   vol(   0 ): 1.456E+15  Parms: SM      M1      
 Compute Stats, Diag. #     83  sIceLoad  vol(   0 ): 1.456E+15  Parms: SM      U1      
 Compute Stats, Diag. #    220  SIuice    vol(   0 ): 1.383E+15  Parms: UU      M1      
 Compute Stats, Diag. #    221  SIvice    vol(   0 ): 1.391E+15  Parms: VV      M1      
 Compute Stats, Diag. #    222  SItaux    vol(   0 ): 1.383E+15  Parms: UU      U1      
 Compute Stats, Diag. #    223  SItauy    vol(   0 ): 1.391E+15  Parms: VV      U1      
 SEAICE_LSR: Residual Initial ipass,Uice,Vice=    1  3.70147896E-03  2.90695435E-03
 SEAICE_LSR (ipass=   1) iters,dU,Resid=     8  3.64636220E-05  9.07327944E-06
 SEAICE_LSR (ipass=   1) iters,dV,Resid=     8  5.74954613E-05  1.12160812E-05
 SEAICE_LSR: Residual Initial ipass,Uice,Vice=    2  2.98137159E-03  2.39564235E-03
 SEAICE_LSR (ipass=   2) iters,dU,Resid=     6  4.07281986E-05  1.16409539E-05
 SEAICE_LSR (ipass=   2) iters,dV,Resid=     6  5.55938288E-05  1.20687539E-05
 cg2d: Sum(rhs),rhsMax =  -7.74432938480494E+01  3.61510086293073E+01
(PID.TID 0000.0001)      cg2d_init_res =   1.85671184755827E-01
(PID.TID 0000.0001)      cg2d_iters(min,last) =      -1      10
(PID.TID 0000.0001)      cg2d_last_res =   8.57294111335567E-08
(PID.TID 0000.0001) // =======================================================
(PID.TID 0000.0001) // Begin MONITOR dynamic field statistics
(PID.TID 0000.0001) // =======================================================
(PID.TID 0000.0001) %MON time_tsnumber                =                 72077
(PID.TID 0000.0001) %MON time_secondsf                =   6.4869300000000E+07
(PID.TID 0000.0001) %MON dynstat_eta_max              =   1.3268365690193E+00
(PID.TID 0000.0001) %MON dynstat_eta_min              =  -1.8710154030311E+00
(PID.TID 0000.0001) %MON dynstat_eta_mean             =   3.2531598848283E-02
(PID.TID 0000.0001) %MON dynstat_eta_sd               =   6.1175668126976E-01
(PID.TID 0000.0001) %MON dynstat_eta_del2             =   1.6758277051991E-03
(PID.TID 0000.0001) %MON dynstat_uvel_max             =   3.3653190327929E-01
(PID.TID 0000.0001) %MON dynstat_uvel_min             =  -6.5959349527244E-01
(PID.TID 0000.0001) %MON dynstat_uvel_mean            =  -3.3890062526616E-04
(PID.TID 0000.0001) %MON dynstat_uvel_sd              =   1.3046758275743E-02
(PID.TID 0000.0001) %MON dynstat_uvel_del2            =   8.5335134222290E-05
(PID.TID 0000.0001) %MON dynstat_vvel_max             =   2.5252390319992E-01
(PID.TID 0000.0001) %MON dynstat_vvel_min             =  -3.1862545625079E-01
(PID.TID 0000.0001) %MON dynstat_vvel_mean            =   3.3759418115749E-04
(PID.TID 0000.0001) %MON dynstat_vvel_sd              =   1.3644607555669E-02
(PID.TID 0000.0001) %MON dynstat_vvel_del2            =   8.4679973995015E-05
(PID.TID 0000.0001) %MON dynstat_wvel_max             =   1.2218001033033E-04
(PID.TID 0000.0001) %MON dynstat_wvel_min             =  -1.9001840077257E-04
(PID.TID 0000.0001) %MON dynstat_wvel_mean            =  -1.1047438847170E-07
(PID.TID 0000.0001) %MON dynstat_wvel_sd              =   7.7183615356273E-06
(PID.TID 0000.0001) %MON dynstat_wvel_del2            =   6.8599998739931E-08
(PID.TID 0000.0001) %MON dynstat_theta_max            =   3.0922356779857E+01
(PID.TID 0000.0001) %MON dynstat_theta_min            =  -3.0112104989748E+00
(PID.TID 0000.0001) %MON dynstat_theta_mean           =   3.9091832661707E+00
(PID.TID 0000.0001) %MON dynstat_theta_sd             =   4.5715696824280E+00
(PID.TID 0000.0001) %MON dynstat_theta_del2           =   2.6394818294735E-03
(PID.TID 0000.0001) %MON dynstat_salt_max             =   4.1346957189695E+01
(PID.TID 0000.0001) %MON dynstat_salt_min             =   1.8519153524201E+01
(PID.TID 0000.0001) %MON dynstat_salt_mean            =   3.4771909889064E+01
(PID.TID 0000.0001) %MON dynstat_salt_sd              =   5.3218044275502E-01
(PID.TID 0000.0001) %MON dynstat_salt_del2            =   1.1157286145207E-03
(PID.TID 0000.0001) %MON dynstat_sst_max              =   3.0922356779857E+01
(PID.TID 0000.0001) %MON dynstat_sst_min              =  -1.9271375733499E+00
(PID.TID 0000.0001) %MON dynstat_sst_mean             =   1.8108304929347E+01
(PID.TID 0000.0001) %MON dynstat_sst_sd               =   9.8129770737285E+00
(PID.TID 0000.0001) %MON dynstat_sst_del2             =   1.4989035250641E-02
(PID.TID 0000.0001) %MON dynstat_sss_max              =   4.1346957189695E+01
(PID.TID 0000.0001) %MON dynstat_sss_min              =   1.8752334288358E+01
(PID.TID 0000.0001) %MON dynstat_sss_mean             =   3.4621234392297E+01
(PID.TID 0000.0001) %MON dynstat_sss_sd               =   1.4882958724950E+00
(PID.TID 0000.0001) %MON dynstat_sss_del2             =   1.2608338223447E-02
(PID.TID 0000.0001) %MON forcing_qnet_max             =   1.6005731201172E+03
(PID.TID 0000.0001) %MON forcing_qnet_min             =  -8.5648232421875E+03
(PID.TID 0000.0001) %MON forcing_qnet_mean            =  -3.0253785333845E+01
(PID.TID 0000.0001) %MON forcing_qnet_sd              =   2.4742553738142E+02
(PID.TID 0000.0001) %MON forcing_qnet_del2            =   7.9319252830901E+00
(PID.TID 0000.0001) %MON forcing_qsw_max              =   0.0000000000000E+00
(PID.TID 0000.0001) %MON forcing_qsw_min              =  -1.0487166099125E+02
(PID.TID 0000.0001) %MON forcing_qsw_mean             =  -1.7833798459427E+01
(PID.TID 0000.0001) %MON forcing_qsw_sd               =   2.7576910902839E+01
(PID.TID 0000.0001) %MON forcing_qsw_del2             =   1.4519467303870E-01
(PID.TID 0000.0001) %MON forcing_empmr_max            =   5.0485050305724E-03
(PID.TID 0000.0001) %MON forcing_empmr_min            =  -7.2582662105560E-02
(PID.TID 0000.0001) %MON forcing_empmr_mean           =  -2.2058143678823E-04
(PID.TID 0000.0001) %MON forcing_empmr_sd             =   3.1985640744784E-03
(PID.TID 0000.0001) %MON forcing_empmr_del2           =   1.2657274741972E-04
(PID.TID 0000.0001) %MON forcing_fu_max               =   3.1102675392602E-01
(PID.TID 0000.0001) %MON forcing_fu_min               =  -3.6182934169440E-01
(PID.TID 0000.0001) %MON forcing_fu_mean              =  -3.6760596781315E-03
(PID.TID 0000.0001) %MON forcing_fu_sd                =   6.0208149189064E-02
(PID.TID 0000.0001) %MON forcing_fu_del2              =   5.9377087760394E-04
(PID.TID 0000.0001) %MON forcing_fv_max               =   2.7365093592076E-01
(PID.TID 0000.0001) %MON forcing_fv_min               =  -2.5566627890369E-01
(PID.TID 0000.0001) %MON forcing_fv_mean              =  -1.4724729367065E-02
(PID.TID 0000.0001) %MON forcing_fv_sd                =   6.0788962768376E-02
(PID.TID 0000.0001) %MON forcing_fv_del2              =   5.2175496172070E-04
(PID.TID 0000.0001) %MON trAdv_CFL_u_max              =   1.9502449282207E-03
(PID.TID 0000.0001) %MON trAdv_CFL_v_max              =   1.1848440747054E-03
(PID.TID 0000.0001) %MON trAdv_CFL_w_max              =   1.4808710084390E-03
(PID.TID 0000.0001) %MON advcfl_uvel_max              =   1.9167847354285E-03
(PID.TID 0000.0001) %MON advcfl_vvel_max              =   1.1482321066582E-03
(PID.TID 0000.0001) %MON advcfl_wvel_max              =   2.5246143341064E-03
(PID.TID 0000.0001) %MON advcfl_W_hf_max              =   1.4808710084390E-03
(PID.TID 0000.0001) %MON pe_b_mean                    =   4.9997061331694E-04
(PID.TID 0000.0001) %MON ke_max                       =   2.1001783630853E-01
(PID.TID 0000.0001) %MON ke_mean                      =   1.6467990005777E-04
(PID.TID 0000.0001) %MON ke_vol                       =   1.3398142133830E+18
(PID.TID 0000.0001) %MON vort_r_min                   =  -2.9127479650770E-06
(PID.TID 0000.0001) %MON vort_r_max                   =   2.4823009379953E-06
(PID.TID 0000.0001) %MON vort_a_mean                  =  -2.0549865324846E-05
(PID.TID 0000.0001) %MON vort_a_sd                    =   7.5259701661865E-05
(PID.TID 0000.0001) %MON vort_p_mean                  =  -2.4783247190883E-05
(PID.TID 0000.0001) %MON vort_p_sd                    =   1.2811922015841E-04
(PID.TID 0000.0001) %MON surfExpan_theta_mean         =  -5.7639181102500E-06
(PID.TID 0000.0001) %MON surfExpan_salt_mean          =   1.1464184797771E-06
(PID.TID 0000.0001) // =======================================================
(PID.TID 0000.0001) // End MONITOR dynamic field statistics
(PID.TID 0000.0001) // =======================================================
(PID.TID 0000.0001) // =======================================================
(PID.TID 0000.0001) // Begin MONITOR SEAICE statistics
(PID.TID 0000.0001) // =======================================================
(PID.TID 0000.0001) %MON seaice_tsnumber              =                 72077
(PID.TID 0000.0001) %MON seaice_time_sec              =   6.4869300000000E+07
(PID.TID 0000.0001) %MON seaice_uice_max              =   3.1385253586043E-01
(PID.TID 0000.0001) %MON seaice_uice_min              =  -5.2342486378775E-01
(PID.TID 0000.0001) %MON seaice_uice_mean             =  -4.6364344104612E-03
(PID.TID 0000.0001) %MON seaice_uice_sd               =   6.1000128766975E-02
(PID.TID 0000.0001) %MON seaice_uice_del2             =   8.7511440545919E-04
(PID.TID 0000.0001) %MON seaice_vice_max              =   2.0376418550768E-01
(PID.TID 0000.0001) %MON seaice_vice_min              =  -3.1683902568146E-01
(PID.TID 0000.0001) %MON seaice_vice_mean             =  -1.3913455139569E-02
(PID.TID 0000.0001) %MON seaice_vice_sd               =   6.1438392894435E-02
(PID.TID 0000.0001) %MON seaice_vice_del2             =   7.9994890473276E-04
(PID.TID 0000.0001) %MON seaice_area_max              =   1.0000000000000E+00
(PID.TID 0000.0001) %MON seaice_area_min              =   0.0000000000000E+00
(PID.TID 0000.0001) %MON seaice_area_mean             =   6.8954465772402E-02
(PID.TID 0000.0001) %MON seaice_area_sd               =   2.3707346451458E-01
(PID.TID 0000.0001) %MON seaice_area_del2             =   1.7329146872009E-03
(PID.TID 0000.0001) %MON seaice_heff_max              =   8.5484335522145E+00
(PID.TID 0000.0001) %MON seaice_heff_min              =   0.0000000000000E+00
(PID.TID 0000.0001) %MON seaice_heff_mean             =   2.0594573922790E-01
(PID.TID 0000.0001) %MON seaice_heff_sd               =   9.8022328215135E-01
(PID.TID 0000.0001) %MON seaice_heff_del2             =   6.2323805596209E-03
(PID.TID 0000.0001) %MON seaice_hsnow_max             =   2.0320414010794E+00
(PID.TID 0000.0001) %MON seaice_hsnow_min             =   0.0000000000000E+00
(PID.TID 0000.0001) %MON seaice_hsnow_mean            =   2.2712047655702E-02
(PID.TID 0000.0001) %MON seaice_hsnow_sd              =   1.1934289054023E-01
(PID.TID 0000.0001) %MON seaice_hsnow_del2            =   1.4607228310327E-03
(PID.TID 0000.0001) // =======================================================
(PID.TID 0000.0001) // End MONITOR SEAICE statistics
(PID.TID 0000.0001) // =======================================================
 Computing Diagnostic #    211  SIarea       Counter:       1   Parms: SM      M1      
 Computing Diagnostic #    214  SIheff       Counter:       1   Parms: SM      M1      
 Computing Diagnostic #    216  SIhsnow      Counter:       1   Parms: SM      M1      
 Computing Diagnostic #     83  sIceLoad     Counter:       1   Parms: SM      U1      
 Computing Diagnostic #    220  SIuice       Counter:       1   Parms: UU      M1      
           Vector  Mate for  SIuice       Diagnostic #    221  SIvice   exists 
 Computing Diagnostic #    221  SIvice       Counter:       1   Parms: VV      M1      
           Vector  Mate for  SIvice       Diagnostic #    220  SIuice   exists 
 Computing Diagnostic #    222  SItaux       Counter:       1   Parms: UU      U1      
           Vector  Mate for  SItaux       Diagnostic #    223  SItauy   exists 
 Computing Diagnostic #    223  SItauy       Counter:       1   Parms: VV      U1      
           Vector  Mate for  SItauy       Diagnostic #    222  SItaux   exists 
 Computing Diagnostic #      1  SDIAG1       Counter:       1   Parms: SM      L1      
 Computing Diagnostic #    282  SIareaN      Counter:       1   Parms: SM      MX      
 Computing Diagnostic #    281  SIheffN      Counter:       1   Parms: SM      MX      
 Computing Diagnostic #    283  SIhsnowN     Counter:       1   Parms: SM      MX      
 SEAICE_LSR: Residual Initial ipass,Uice,Vice=    1  3.79088454E-03  2.65533738E-03
 SEAICE_LSR (ipass=   1) iters,dU,Resid=     6  6.68584477E-05  2.40473653E-05
 SEAICE_LSR (ipass=   1) iters,dV,Resid=     6  8.95672554E-05  1.89889723E-05
 SEAICE_LSR: Residual Initial ipass,Uice,Vice=    2  3.11912818E-03  2.11948156E-03
 SEAICE_LSR (ipass=   2) iters,dU,Resid=     6  3.73715313E-05  1.67560934E-05
 SEAICE_LSR (ipass=   2) iters,dV,Resid=     6  3.67551302E-05  9.47567788E-06
 cg2d: Sum(rhs),rhsMax =  -7.78364953613677E+01  3.61781730914537E+01
(PID.TID 0000.0001)      cg2d_init_res =   1.85720230017265E-01
(PID.TID 0000.0001)      cg2d_iters(min,last) =      -1      10
(PID.TID 0000.0001)      cg2d_last_res =   8.19489352059582E-08
(PID.TID 0000.0001) // =======================================================
(PID.TID 0000.0001) // Begin MONITOR dynamic field statistics
(PID.TID 0000.0001) // =======================================================
(PID.TID 0000.0001) %MON time_tsnumber                =                 72078
(PID.TID 0000.0001) %MON time_secondsf                =   6.4870200000000E+07
(PID.TID 0000.0001) %MON dynstat_eta_max              =   1.3215933330804E+00
(PID.TID 0000.0001) %MON dynstat_eta_min              =  -1.7532754129521E+00
(PID.TID 0000.0001) %MON dynstat_eta_mean             =   3.2721339870753E-02
(PID.TID 0000.0001) %MON dynstat_eta_sd               =   6.1170738313782E-01
(PID.TID 0000.0001) %MON dynstat_eta_del2             =   1.6435481252640E-03
(PID.TID 0000.0001) %MON dynstat_uvel_max             =   3.5831479629313E-01
(PID.TID 0000.0001) %MON dynstat_uvel_min             =  -6.5713415654948E-01
(PID.TID 0000.0001) %MON dynstat_uvel_mean            =  -3.5201021517299E-04
(PID.TID 0000.0001) %MON dynstat_uvel_sd              =   1.3030378048096E-02
(PID.TID 0000.0001) %MON dynstat_uvel_del2            =   8.4989007451125E-05
(PID.TID 0000.0001) %MON dynstat_vvel_max             =   2.4258173390163E-01
(PID.TID 0000.0001) %MON dynstat_vvel_min             =  -3.2481614999109E-01
(PID.TID 0000.0001) %MON dynstat_vvel_mean            =   3.1556937624785E-04
(PID.TID 0000.0001) %MON dynstat_vvel_sd              =   1.3656667461842E-02
(PID.TID 0000.0001) %MON dynstat_vvel_del2            =   8.5338589468941E-05
(PID.TID 0000.0001) %MON dynstat_wvel_max             =   1.2334101696126E-04
(PID.TID 0000.0001) %MON dynstat_wvel_min             =  -1.9001542769927E-04
(PID.TID 0000.0001) %MON dynstat_wvel_mean            =  -1.0115135413657E-07
(PID.TID 0000.0001) %MON dynstat_wvel_sd              =   7.7077828829179E-06
(PID.TID 0000.0001) %MON dynstat_wvel_del2            =   6.8461790906394E-08
(PID.TID 0000.0001) %MON dynstat_theta_max            =   3.0922163084300E+01
(PID.TID 0000.0001) %MON dynstat_theta_min            =  -3.0116793366115E+00
(PID.TID 0000.0001) %MON dynstat_theta_mean           =   3.9091861401494E+00
(PID.TID 0000.0001) %MON dynstat_theta_sd             =   4.5715802765485E+00
(PID.TID 0000.0001) %MON dynstat_theta_del2           =   2.6393744566258E-03
(PID.TID 0000.0001) %MON dynstat_salt_max             =   4.1346919553135E+01
(PID.TID 0000.0001) %MON dynstat_salt_min             =   1.8519163537603E+01
(PID.TID 0000.0001) %MON dynstat_salt_mean            =   3.4771908174217E+01
(PID.TID 0000.0001) %MON dynstat_salt_sd              =   5.3219183663065E-01
(PID.TID 0000.0001) %MON dynstat_salt_del2            =   1.1182483145094E-03
(PID.TID 0000.0001) %MON dynstat_sst_max              =   3.0922163084300E+01
(PID.TID 0000.0001) %MON dynstat_sst_min              =  -1.9265534590308E+00
(PID.TID 0000.0001) %MON dynstat_sst_mean             =   1.8108418840553E+01
(PID.TID 0000.0001) %MON dynstat_sst_sd               =   9.8131055901373E+00
(PID.TID 0000.0001) %MON dynstat_sst_del2             =   1.4987212939350E-02
(PID.TID 0000.0001) %MON dynstat_sss_max              =   4.1346919553135E+01
(PID.TID 0000.0001) %MON dynstat_sss_min              =   1.8752350238412E+01
(PID.TID 0000.0001) %MON dynstat_sss_mean             =   3.4621102777103E+01
(PID.TID 0000.0001) %MON dynstat_sss_sd               =   1.4885862102411E+00
(PID.TID 0000.0001) %MON dynstat_sss_del2             =   1.2643580578199E-02
(PID.TID 0000.0001) %MON forcing_qnet_max             =   1.5836798095703E+03
(PID.TID 0000.0001) %MON forcing_qnet_min             =  -1.1057674486040E+03
(PID.TID 0000.0001) %MON forcing_qnet_mean            =  -2.9172351644346E+01
(PID.TID 0000.0001) %MON forcing_qnet_sd              =   2.0493593907918E+02
(PID.TID 0000.0001) %MON forcing_qnet_del2            =   3.4326270580034E+00
(PID.TID 0000.0001) %MON forcing_qsw_max              =   0.0000000000000E+00
(PID.TID 0000.0001) %MON forcing_qsw_min              =  -1.0450175780822E+02
(PID.TID 0000.0001) %MON forcing_qsw_mean             =  -1.8022865387029E+01
(PID.TID 0000.0001) %MON forcing_qsw_sd               =   2.7570188525293E+01
(PID.TID 0000.0001) %MON forcing_qsw_del2             =   1.4567203385134E-01
(PID.TID 0000.0001) %MON forcing_empmr_max            =   4.9965479411185E-03
(PID.TID 0000.0001) %MON forcing_empmr_min            =  -7.1835868060589E-02
(PID.TID 0000.0001) %MON forcing_empmr_mean           =  -2.1820217583999E-04
(PID.TID 0000.0001) %MON forcing_empmr_sd             =   3.1660014594071E-03
(PID.TID 0000.0001) %MON forcing_empmr_del2           =   1.2527659558197E-04
(PID.TID 0000.0001) %MON forcing_fu_max               =   3.0349146791345E-01
(PID.TID 0000.0001) %MON forcing_fu_min               =  -3.5386100675598E-01
(PID.TID 0000.0001) %MON forcing_fu_mean              =  -3.7908334709490E-03
(PID.TID 0000.0001) %MON forcing_fu_sd                =   5.9707468185429E-02
(PID.TID 0000.0001) %MON forcing_fu_del2              =   5.8935633921387E-04
(PID.TID 0000.0001) %MON forcing_fv_max               =   2.8079445262615E-01
(PID.TID 0000.0001) %MON forcing_fv_min               =  -2.5521534343981E-01
(PID.TID 0000.0001) %MON forcing_fv_mean              =  -1.4717728709419E-02
(PID.TID 0000.0001) %MON forcing_fv_sd                =   6.0807125041943E-02
(PID.TID 0000.0001) %MON forcing_fv_del2              =   5.2160884932016E-04
(PID.TID 0000.0001) %MON trAdv_CFL_u_max              =   1.8959087198305E-03
(PID.TID 0000.0001) %MON trAdv_CFL_v_max              =   1.1864895339468E-03
(PID.TID 0000.0001) %MON trAdv_CFL_w_max              =   1.4226008526376E-03
(PID.TID 0000.0001) %MON advcfl_uvel_max              =   1.8957269263660E-03
(PID.TID 0000.0001) %MON advcfl_vvel_max              =   1.1561673208518E-03
(PID.TID 0000.0001) %MON advcfl_wvel_max              =   2.4986388890640E-03
(PID.TID 0000.0001) %MON advcfl_W_hf_max              =   1.4226008526376E-03
(PID.TID 0000.0001) %MON pe_b_mean                    =   4.9990673177718E-04
(PID.TID 0000.0001) %MON ke_max                       =   2.0454703480384E-01
(PID.TID 0000.0001) %MON ke_mean                      =   1.6463393217857E-04
(PID.TID 0000.0001) %MON ke_vol                       =   1.3398142831801E+18
(PID.TID 0000.0001) %MON vort_r_min                   =  -2.6689873526606E-06
(PID.TID 0000.0001) %MON vort_r_max                   =   2.5507528892058E-06
(PID.TID 0000.0001) %MON vort_a_mean                  =  -2.0549865324846E-05
(PID.TID 0000.0001) %MON vort_a_sd                    =   7.5259696731968E-05
(PID.TID 0000.0001) %MON vort_p_mean                  =  -2.4783245787921E-05
(PID.TID 0000.0001) %MON vort_p_sd                    =   1.2811921775431E-04
(PID.TID 0000.0001) %MON surfExpan_theta_mean         =  -5.6412407240949E-06
(PID.TID 0000.0001) %MON surfExpan_salt_mean          =   1.1299562673424E-06
(PID.TID 0000.0001) // =======================================================
(PID.TID 0000.0001) // End MONITOR dynamic field statistics
(PID.TID 0000.0001) // =======================================================
(PID.TID 0000.0001) // =======================================================
(PID.TID 0000.0001) // Begin MONITOR SEAICE statistics
(PID.TID 0000.0001) // =======================================================
(PID.TID 0000.0001) %MON seaice_tsnumber              =                 72078
(PID.TID 0000.0001) %MON seaice_time_sec              =   6.4870200000000E+07
(PID.TID 0000.0001) %MON seaice_uice_max              =   3.3707014978570E-01
(PID.TID 0000.0001) %MON seaice_uice_min              =  -4.9708126681219E-01
(PID.TID 0000.0001) %MON seaice_uice_mean             =  -4.7783070263918E-03
(PID.TID 0000.0001) %MON seaice_uice_sd               =   6.0737402014518E-02
(PID.TID 0000.0001) %MON seaice_uice_del2             =   8.6998246910879E-04
(PID.TID 0000.0001) %MON seaice_vice_max              =   2.0145033239744E-01
(PID.TID 0000.0001) %MON seaice_vice_min              =  -3.1862545623683E-01
(PID.TID 0000.0001) %MON seaice_vice_mean             =  -1.3940556793597E-02
(PID.TID 0000.0001) %MON seaice_vice_sd               =   6.1531416732774E-02
(PID.TID 0000.0001) %MON seaice_vice_del2             =   8.0486583973674E-04
(PID.TID 0000.0001) %MON seaice_area_max              =   1.0000000000000E+00
(PID.TID 0000.0001) %MON seaice_area_min              =   0.0000000000000E+00
(PID.TID 0000.0001) %MON seaice_area_mean             =   6.8947637843667E-02
(PID.TID 0000.0001) %MON seaice_area_sd               =   2.3705571077200E-01
(PID.TID 0000.0001) %MON seaice_area_del2             =   1.7323933359511E-03
(PID.TID 0000.0001) %MON seaice_heff_max              =   8.5488435146145E+00
(PID.TID 0000.0001) %MON seaice_heff_min              =   0.0000000000000E+00
(PID.TID 0000.0001) %MON seaice_heff_mean             =   2.0593719143915E-01
(PID.TID 0000.0001) %MON seaice_heff_sd               =   9.8021682477954E-01
(PID.TID 0000.0001) %MON seaice_heff_del2             =   6.2320442923912E-03
(PID.TID 0000.0001) %MON seaice_hsnow_max             =   2.0320512511411E+00
(PID.TID 0000.0001) %MON seaice_hsnow_min             =   0.0000000000000E+00
(PID.TID 0000.0001) %MON seaice_hsnow_mean            =   2.2710478500796E-02
(PID.TID 0000.0001) %MON seaice_hsnow_sd              =   1.1933855552705E-01
(PID.TID 0000.0001) %MON seaice_hsnow_del2            =   1.4606739485145E-03
(PID.TID 0000.0001) // =======================================================
(PID.TID 0000.0001) // End MONITOR SEAICE statistics
(PID.TID 0000.0001) // =======================================================
 SEAICE_LSR: Residual Initial ipass,Uice,Vice=    1  3.92899838E-03  2.37996927E-03
 SEAICE_LSR (ipass=   1) iters,dU,Resid=     6  5.48982757E-05  3.28907005E-05
 SEAICE_LSR (ipass=   1) iters,dV,Resid=     6  6.84983911E-05  1.58083697E-05
 SEAICE_LSR: Residual Initial ipass,Uice,Vice=    2  3.32314179E-03  1.85075577E-03
 SEAICE_LSR (ipass=   2) iters,dU,Resid=     4  5.50008950E-05  4.99214578E-05
 SEAICE_LSR (ipass=   2) iters,dV,Resid=     4  7.71465668E-05  2.69157118E-05
 cg2d: Sum(rhs),rhsMax =  -7.82360501096817E+01  3.62002143629034E+01
(PID.TID 0000.0001)      cg2d_init_res =   1.86781460691950E-01
(PID.TID 0000.0001)      cg2d_iters(min,last) =      -1      10
(PID.TID 0000.0001)      cg2d_last_res =   7.70448337768284E-08
(PID.TID 0000.0001) // =======================================================
(PID.TID 0000.0001) // Begin MONITOR dynamic field statistics
(PID.TID 0000.0001) // =======================================================
(PID.TID 0000.0001) %MON time_tsnumber                =                 72079
(PID.TID 0000.0001) %MON time_secondsf                =   6.4871100000000E+07
(PID.TID 0000.0001) %MON dynstat_eta_max              =   1.3092393005222E+00
(PID.TID 0000.0001) %MON dynstat_eta_min              =  -1.6158046560876E+00
(PID.TID 0000.0001) %MON dynstat_eta_mean             =   3.2909344478667E-02
(PID.TID 0000.0001) %MON dynstat_eta_sd               =   6.1164481204872E-01
(PID.TID 0000.0001) %MON dynstat_eta_del2             =   1.6037018030507E-03
(PID.TID 0000.0001) %MON dynstat_uvel_max             =   3.7774980151793E-01
(PID.TID 0000.0001) %MON dynstat_uvel_min             =  -6.7042822128148E-01
(PID.TID 0000.0001) %MON dynstat_uvel_mean            =  -3.6577868594703E-04
(PID.TID 0000.0001) %MON dynstat_uvel_sd              =   1.3014073335238E-02
(PID.TID 0000.0001) %MON dynstat_uvel_del2            =   8.4755445037897E-05
(PID.TID 0000.0001) %MON dynstat_vvel_max             =   2.3094656080363E-01
(PID.TID 0000.0001) %MON dynstat_vvel_min             =  -3.6094228614289E-01
(PID.TID 0000.0001) %MON dynstat_vvel_mean            =   2.9381809503920E-04
(PID.TID 0000.0001) %MON dynstat_vvel_sd              =   1.3669530681720E-02
(PID.TID 0000.0001) %MON dynstat_vvel_del2            =   8.6097230209440E-05
(PID.TID 0000.0001) %MON dynstat_wvel_max             =   1.2333788941298E-04
(PID.TID 0000.0001) %MON dynstat_wvel_min             =  -1.9001960779283E-04
(PID.TID 0000.0001) %MON dynstat_wvel_mean            =  -9.2433470201200E-08
(PID.TID 0000.0001) %MON dynstat_wvel_sd              =   7.6959668227785E-06
(PID.TID 0000.0001) %MON dynstat_wvel_del2            =   6.8301330363868E-08
(PID.TID 0000.0001) %MON dynstat_theta_max            =   3.0921960678989E+01
(PID.TID 0000.0001) %MON dynstat_theta_min            =  -3.0121678678691E+00
(PID.TID 0000.0001) %MON dynstat_theta_mean           =   3.9091890297573E+00
(PID.TID 0000.0001) %MON dynstat_theta_sd             =   4.5715910521171E+00
(PID.TID 0000.0001) %MON dynstat_theta_del2           =   2.6392759401662E-03
(PID.TID 0000.0001) %MON dynstat_salt_max             =   4.1346881962997E+01
(PID.TID 0000.0001) %MON dynstat_salt_min             =   1.8519173548135E+01
(PID.TID 0000.0001) %MON dynstat_salt_mean            =   3.4771906481004E+01
(PID.TID 0000.0001) %MON dynstat_salt_sd              =   5.3220307896053E-01
(PID.TID 0000.0001) %MON dynstat_salt_del2            =   1.1207147404341E-03
(PID.TID 0000.0001) %MON dynstat_sst_max              =   3.0921960678989E+01
(PID.TID 0000.0001) %MON dynstat_sst_min              =  -1.9259070621085E+00
(PID.TID 0000.0001) %MON dynstat_sst_mean             =   1.8108534272787E+01
(PID.TID 0000.0001) %MON dynstat_sst_sd               =   9.8132386222284E+00
(PID.TID 0000.0001) %MON dynstat_sst_del2             =   1.4985634178323E-02
(PID.TID 0000.0001) %MON dynstat_sss_max              =   4.1346881962997E+01
(PID.TID 0000.0001) %MON dynstat_sss_min              =   1.8752365963983E+01
(PID.TID 0000.0001) %MON dynstat_sss_mean             =   3.4620972803975E+01
(PID.TID 0000.0001) %MON dynstat_sss_sd               =   1.4888720783007E+00
(PID.TID 0000.0001) %MON dynstat_sss_del2             =   1.2678060886295E-02
(PID.TID 0000.0001) %MON forcing_qnet_max             =   1.5651696777344E+03
(PID.TID 0000.0001) %MON forcing_qnet_min             =  -9.1728256233051E+02
(PID.TID 0000.0001) %MON forcing_qnet_mean            =  -2.9671504404691E+01
(PID.TID 0000.0001) %MON forcing_qnet_sd              =   2.0244103040024E+02
(PID.TID 0000.0001) %MON forcing_qnet_del2            =   3.2535913175412E+00
(PID.TID 0000.0001) %MON forcing_qsw_max              =   0.0000000000000E+00
(PID.TID 0000.0001) %MON forcing_qsw_min              =  -1.0441233330216E+02
(PID.TID 0000.0001) %MON forcing_qsw_mean             =  -1.8160290287024E+01
(PID.TID 0000.0001) %MON forcing_qsw_sd               =   2.7543621965930E+01
(PID.TID 0000.0001) %MON forcing_qsw_del2             =   1.4584675636014E-01
(PID.TID 0000.0001) %MON forcing_empmr_max            =   4.9450825899839E-03
(PID.TID 0000.0001) %MON forcing_empmr_min            =  -7.1095801889896E-02
(PID.TID 0000.0001) %MON forcing_empmr_mean           =  -2.1620529910074E-04
(PID.TID 0000.0001) %MON forcing_empmr_sd             =   3.1337980292133E-03
(PID.TID 0000.0001) %MON forcing_empmr_del2           =   1.2398396449773E-04
(PID.TID 0000.0001) %MON forcing_fu_max               =   2.9571785132445E-01
(PID.TID 0000.0001) %MON forcing_fu_min               =  -3.4855063322770E-01
(PID.TID 0000.0001) %MON forcing_fu_mean              =  -3.8866803440978E-03
(PID.TID 0000.0001) %MON forcing_fu_sd                =   5.9349316540989E-02
(PID.TID 0000.0001) %MON forcing_fu_del2              =   5.8730645021463E-04
(PID.TID 0000.0001) %MON forcing_fv_max               =   2.8451239884251E-01
(PID.TID 0000.0001) %MON forcing_fv_min               =  -2.5502921109864E-01
(PID.TID 0000.0001) %MON forcing_fv_mean              =  -1.4693053303807E-02
(PID.TID 0000.0001) %MON forcing_fv_sd                =   6.0829496879413E-02
(PID.TID 0000.0001) %MON forcing_fv_del2              =   5.2077249650178E-04
(PID.TID 0000.0001) %MON trAdv_CFL_u_max              =   1.9351372085376E-03
(PID.TID 0000.0001) %MON trAdv_CFL_v_max              =   1.1878640174559E-03
(PID.TID 0000.0001) %MON trAdv_CFL_w_max              =   1.3624827147436E-03
(PID.TID 0000.0001) %MON advcfl_uvel_max              =   1.9340781765972E-03
(PID.TID 0000.0001) %MON advcfl_vvel_max              =   1.1778863406903E-03
(PID.TID 0000.0001) %MON advcfl_wvel_max              =   2.4728974570399E-03
(PID.TID 0000.0001) %MON advcfl_W_hf_max              =   1.3624827147436E-03
(PID.TID 0000.0001) %MON pe_b_mean                    =   4.9982117037645E-04
(PID.TID 0000.0001) %MON ke_max                       =   1.9861638129088E-01
(PID.TID 0000.0001) %MON ke_mean                      =   1.6460034090154E-04
(PID.TID 0000.0001) %MON ke_vol                       =   1.3398143522244E+18
(PID.TID 0000.0001) %MON vort_r_min                   =  -2.4172957584328E-06
(PID.TID 0000.0001) %MON vort_r_max                   =   2.6110435778174E-06
(PID.TID 0000.0001) %MON vort_a_mean                  =  -2.0549865324846E-05
(PID.TID 0000.0001) %MON vort_a_sd                    =   7.5259691851595E-05
(PID.TID 0000.0001) %MON vort_p_mean                  =  -2.4783244417222E-05
(PID.TID 0000.0001) %MON vort_p_sd                    =   1.2811921595023E-04
(PID.TID 0000.0001) %MON surfExpan_theta_mean         =  -5.5243721266476E-06
(PID.TID 0000.0001) %MON surfExpan_salt_mean          =   1.1131856207702E-06
(PID.TID 0000.0001) // =======================================================
(PID.TID 0000.0001) // End MONITOR dynamic field statistics
(PID.TID 0000.0001) // =======================================================
(PID.TID 0000.0001) // =======================================================
(PID.TID 0000.0001) // Begin MONITOR SEAICE statistics
(PID.TID 0000.0001) // =======================================================
(PID.TID 0000.0001) %MON seaice_tsnumber              =                 72079
(PID.TID 0000.0001) %MON seaice_time_sec              =   6.4871100000000E+07
(PID.TID 0000.0001) %MON seaice_uice_max              =   3.5770453772770E-01
(PID.TID 0000.0001) %MON seaice_uice_min              =  -4.7392666763956E-01
(PID.TID 0000.0001) %MON seaice_uice_mean             =  -4.9261363984055E-03
(PID.TID 0000.0001) %MON seaice_uice_sd               =   6.0465076897548E-02
(PID.TID 0000.0001) %MON seaice_uice_del2             =   8.6640702541467E-04
(PID.TID 0000.0001) %MON seaice_vice_max              =   2.0049199727047E-01
(PID.TID 0000.0001) %MON seaice_vice_min              =  -3.2041120149239E-01
(PID.TID 0000.0001) %MON seaice_vice_mean             =  -1.3965367632514E-02
(PID.TID 0000.0001) %MON seaice_vice_sd               =   6.1647016211613E-02
(PID.TID 0000.0001) %MON seaice_vice_del2             =   8.1039181826945E-04
(PID.TID 0000.0001) %MON seaice_area_max              =   1.0000000000000E+00
(PID.TID 0000.0001) %MON seaice_area_min              =   0.0000000000000E+00
(PID.TID 0000.0001) %MON seaice_area_mean             =   6.8940779098410E-02
(PID.TID 0000.0001) %MON seaice_area_sd               =   2.3703778541416E-01
(PID.TID 0000.0001) %MON seaice_area_del2             =   1.7318523627529E-03
(PID.TID 0000.0001) %MON seaice_heff_max              =   8.5492425737061E+00
(PID.TID 0000.0001) %MON seaice_heff_min              =   0.0000000000000E+00
(PID.TID 0000.0001) %MON seaice_heff_mean             =   2.0592852779409E-01
(PID.TID 0000.0001) %MON seaice_heff_sd               =   9.8020981215416E-01
(PID.TID 0000.0001) %MON seaice_heff_del2             =   6.2317088016525E-03
(PID.TID 0000.0001) %MON seaice_hsnow_max             =   2.0320609141595E+00
(PID.TID 0000.0001) %MON seaice_hsnow_min             =   0.0000000000000E+00
(PID.TID 0000.0001) %MON seaice_hsnow_mean            =   2.2708896881862E-02
(PID.TID 0000.0001) %MON seaice_hsnow_sd              =   1.1933426763510E-01
(PID.TID 0000.0001) %MON seaice_hsnow_del2            =   1.4606240096243E-03
(PID.TID 0000.0001) // =======================================================
(PID.TID 0000.0001) // End MONITOR SEAICE statistics
(PID.TID 0000.0001) // =======================================================
 SEAICE_LSR: Residual Initial ipass,Uice,Vice=    1  4.19117482E-03  2.17346989E-03
 SEAICE_LSR (ipass=   1) iters,dU,Resid=     6  3.70478040E-05  4.34580371E-05
 SEAICE_LSR (ipass=   1) iters,dV,Resid=     6  5.43973694E-05  1.63003221E-05
 SEAICE_LSR: Residual Initial ipass,Uice,Vice=    2  3.58903098E-03  1.59903026E-03
 SEAICE_LSR (ipass=   2) iters,dU,Resid=     4  4.95530672E-05  6.07221586E-05
 SEAICE_LSR (ipass=   2) iters,dV,Resid=     4  7.50031945E-05  2.98786838E-05
 cg2d: Sum(rhs),rhsMax =  -7.86421673431500E+01  3.62166913043928E+01
(PID.TID 0000.0001)      cg2d_init_res =   1.88408693609067E-01
(PID.TID 0000.0001)      cg2d_iters(min,last) =      -1      10
(PID.TID 0000.0001)      cg2d_last_res =   7.03945412446045E-08
(PID.TID 0000.0001) // =======================================================
(PID.TID 0000.0001) // Begin MONITOR dynamic field statistics
(PID.TID 0000.0001) // =======================================================
(PID.TID 0000.0001) %MON time_tsnumber                =                 72080
(PID.TID 0000.0001) %MON time_secondsf                =   6.4872000000000E+07
(PID.TID 0000.0001) %MON dynstat_eta_max              =   1.2897484721630E+00
(PID.TID 0000.0001) %MON dynstat_eta_min              =  -1.5620526948344E+00
(PID.TID 0000.0001) %MON dynstat_eta_mean             =   3.3095231138414E-02
(PID.TID 0000.0001) %MON dynstat_eta_sd               =   6.1157213957010E-01
(PID.TID 0000.0001) %MON dynstat_eta_del2             =   1.5583747272058E-03
(PID.TID 0000.0001) %MON dynstat_uvel_max             =   3.9402292161555E-01
(PID.TID 0000.0001) %MON dynstat_uvel_min             =  -6.8210305903377E-01
(PID.TID 0000.0001) %MON dynstat_uvel_mean            =  -3.7993540681836E-04
(PID.TID 0000.0001) %MON dynstat_uvel_sd              =   1.2998233755235E-02
(PID.TID 0000.0001) %MON dynstat_uvel_del2            =   8.4623806774200E-05
(PID.TID 0000.0001) %MON dynstat_vvel_max             =   2.4759489920301E-01
(PID.TID 0000.0001) %MON dynstat_vvel_min             =  -3.9046308951138E-01
(PID.TID 0000.0001) %MON dynstat_vvel_mean            =   2.7256346500315E-04
(PID.TID 0000.0001) %MON dynstat_vvel_sd              =   1.3682287185383E-02
(PID.TID 0000.0001) %MON dynstat_vvel_del2            =   8.6864171782300E-05
(PID.TID 0000.0001) %MON dynstat_wvel_max             =   1.2220204849523E-04
(PID.TID 0000.0001) %MON dynstat_wvel_min             =  -1.9003545980047E-04
(PID.TID 0000.0001) %MON dynstat_wvel_mean            =  -8.4049040322401E-08
(PID.TID 0000.0001) %MON dynstat_wvel_sd              =   7.6826279590875E-06
(PID.TID 0000.0001) %MON dynstat_wvel_del2            =   6.8111239467278E-08
(PID.TID 0000.0001) %MON dynstat_theta_max            =   3.0921750555248E+01
(PID.TID 0000.0001) %MON dynstat_theta_min            =  -3.0126739566313E+00
(PID.TID 0000.0001) %MON dynstat_theta_mean           =   3.9091919377192E+00
(PID.TID 0000.0001) %MON dynstat_theta_sd             =   4.5716019725112E+00
(PID.TID 0000.0001) %MON dynstat_theta_del2           =   2.6391754551734E-03
(PID.TID 0000.0001) %MON dynstat_salt_max             =   4.1346844701562E+01
(PID.TID 0000.0001) %MON dynstat_salt_min             =   1.8519183558570E+01
(PID.TID 0000.0001) %MON dynstat_salt_mean            =   3.4771904817205E+01
(PID.TID 0000.0001) %MON dynstat_salt_sd              =   5.3221416231980E-01
(PID.TID 0000.0001) %MON dynstat_salt_del2            =   1.1231282311444E-03
(PID.TID 0000.0001) %MON dynstat_sst_max              =   3.0921750555248E+01
(PID.TID 0000.0001) %MON dynstat_sst_min              =  -1.9251763872726E+00
(PID.TID 0000.0001) %MON dynstat_sst_mean             =   1.8108651817889E+01
(PID.TID 0000.0001) %MON dynstat_sst_sd               =   9.8133744467847E+00
(PID.TID 0000.0001) %MON dynstat_sst_del2             =   1.4984000232516E-02
(PID.TID 0000.0001) %MON dynstat_sss_max              =   4.1346844701562E+01
(PID.TID 0000.0001) %MON dynstat_sss_min              =   1.8752381471611E+01
(PID.TID 0000.0001) %MON dynstat_sss_mean             =   3.4620845077253E+01
(PID.TID 0000.0001) %MON dynstat_sss_sd               =   1.4891533146230E+00
(PID.TID 0000.0001) %MON dynstat_sss_del2             =   1.2711785381334E-02
(PID.TID 0000.0001) %MON forcing_qnet_max             =   1.5477829589844E+03
(PID.TID 0000.0001) %MON forcing_qnet_min             =  -9.3970397949219E+02
(PID.TID 0000.0001) %MON forcing_qnet_mean            =  -3.0267603902166E+01
(PID.TID 0000.0001) %MON forcing_qnet_sd              =   2.0113773727880E+02
(PID.TID 0000.0001) %MON forcing_qnet_del2            =   3.2912676879749E+00
(PID.TID 0000.0001) %MON forcing_qsw_max              =   0.0000000000000E+00
(PID.TID 0000.0001) %MON forcing_qsw_min              =  -1.0539640525582E+02
(PID.TID 0000.0001) %MON forcing_qsw_mean             =  -1.8243857049539E+01
(PID.TID 0000.0001) %MON forcing_qsw_sd               =   2.7499412236357E+01
(PID.TID 0000.0001) %MON forcing_qsw_del2             =   1.4574713681594E-01
(PID.TID 0000.0001) %MON forcing_empmr_max            =   4.8941094428301E-03
(PID.TID 0000.0001) %MON forcing_empmr_min            =  -7.0364117622375E-02
(PID.TID 0000.0001) %MON forcing_empmr_mean           =  -2.1376965870900E-04
(PID.TID 0000.0001) %MON forcing_empmr_sd             =   3.1019177534652E-03
(PID.TID 0000.0001) %MON forcing_empmr_del2           =   1.2270517039861E-04
(PID.TID 0000.0001) %MON forcing_fu_max               =   2.8883394640702E-01
(PID.TID 0000.0001) %MON forcing_fu_min               =  -3.5152491536095E-01
(PID.TID 0000.0001) %MON forcing_fu_mean              =  -3.9506833403732E-03
(PID.TID 0000.0001) %MON forcing_fu_sd                =   5.9218102933762E-02
(PID.TID 0000.0001) %MON forcing_fu_del2              =   5.8522601240142E-04
(PID.TID 0000.0001) %MON forcing_fv_max               =   2.8285403413171E-01
(PID.TID 0000.0001) %MON forcing_fv_min               =  -2.5522201865346E-01
(PID.TID 0000.0001) %MON forcing_fv_mean              =  -1.4713201938685E-02
(PID.TID 0000.0001) %MON forcing_fv_sd                =   6.0793072356345E-02
(PID.TID 0000.0001) %MON forcing_fv_del2              =   5.1947902588383E-04
(PID.TID 0000.0001) %MON trAdv_CFL_u_max              =   1.9698030798033E-03
(PID.TID 0000.0001) %MON trAdv_CFL_v_max              =   1.2735463901492E-03
(PID.TID 0000.0001) %MON trAdv_CFL_w_max              =   1.3009794099621E-03
(PID.TID 0000.0001) %MON advcfl_uvel_max              =   1.9677582160038E-03
(PID.TID 0000.0001) %MON advcfl_vvel_max              =   1.2742234903923E-03
(PID.TID 0000.0001) %MON advcfl_wvel_max              =   2.4474475694739E-03
(PID.TID 0000.0001) %MON advcfl_W_hf_max              =   1.3221107913948E-03
(PID.TID 0000.0001) %MON pe_b_mean                    =   4.9971906732367E-04
(PID.TID 0000.0001) %MON ke_max                       =   1.9234220827151E-01
(PID.TID 0000.0001) %MON ke_mean                      =   1.6457222134984E-04
(PID.TID 0000.0001) %MON ke_vol                       =   1.3398144206368E+18
(PID.TID 0000.0001) %MON vort_r_min                   =  -2.1955013502160E-06
(PID.TID 0000.0001) %MON vort_r_max                   =   2.6626801243557E-06
(PID.TID 0000.0001) %MON vort_a_mean                  =  -2.0549865324846E-05
(PID.TID 0000.0001) %MON vort_a_sd                    =   7.5259687085452E-05
(PID.TID 0000.0001) %MON vort_p_mean                  =  -2.4783243075901E-05
(PID.TID 0000.0001) %MON vort_p_sd                    =   1.2811921498194E-04
(PID.TID 0000.0001) %MON surfExpan_theta_mean         =  -5.3967806094108E-06
(PID.TID 0000.0001) %MON surfExpan_salt_mean          =   1.0956018515115E-06
(PID.TID 0000.0001) // =======================================================
(PID.TID 0000.0001) // End MONITOR dynamic field statistics
(PID.TID 0000.0001) // =======================================================
(PID.TID 0000.0001) // =======================================================
(PID.TID 0000.0001) // Begin MONITOR SEAICE statistics
(PID.TID 0000.0001) // =======================================================
(PID.TID 0000.0001) %MON seaice_tsnumber              =                 72080
(PID.TID 0000.0001) %MON seaice_time_sec              =   6.4872000000000E+07
(PID.TID 0000.0001) %MON seaice_uice_max              =   3.7535743600568E-01
(PID.TID 0000.0001) %MON seaice_uice_min              =  -4.6140355319083E-01
(PID.TID 0000.0001) %MON seaice_uice_mean             =  -5.0969243028753E-03
(PID.TID 0000.0001) %MON seaice_uice_sd               =   6.0211384916274E-02
(PID.TID 0000.0001) %MON seaice_uice_del2             =   8.6367788031462E-04
(PID.TID 0000.0001) %MON seaice_vice_max              =   2.0509592392806E-01
(PID.TID 0000.0001) %MON seaice_vice_min              =  -3.2219610713914E-01
(PID.TID 0000.0001) %MON seaice_vice_mean             =  -1.3999286532456E-02
(PID.TID 0000.0001) %MON seaice_vice_sd               =   6.1769580480126E-02
(PID.TID 0000.0001) %MON seaice_vice_del2             =   8.1604490148956E-04
(PID.TID 0000.0001) %MON seaice_area_max              =   1.0000000000000E+00
(PID.TID 0000.0001) %MON seaice_area_min              =   0.0000000000000E+00
(PID.TID 0000.0001) %MON seaice_area_mean             =   6.8933885177562E-02
(PID.TID 0000.0001) %MON seaice_area_sd               =   2.3701975683645E-01
(PID.TID 0000.0001) %MON seaice_area_del2             =   1.7313119739992E-03
(PID.TID 0000.0001) %MON seaice_heff_max              =   8.5496301821959E+00
(PID.TID 0000.0001) %MON seaice_heff_min              =   0.0000000000000E+00
(PID.TID 0000.0001) %MON seaice_heff_mean             =   2.0591975629141E-01
(PID.TID 0000.0001) %MON seaice_heff_sd               =   9.8020228804119E-01
(PID.TID 0000.0001) %MON seaice_heff_del2             =   6.2313730956732E-03
(PID.TID 0000.0001) %MON seaice_hsnow_max             =   2.0320702530609E+00
(PID.TID 0000.0001) %MON seaice_hsnow_min             =   0.0000000000000E+00
(PID.TID 0000.0001) %MON seaice_hsnow_mean            =   2.2707363536557E-02
(PID.TID 0000.0001) %MON seaice_hsnow_sd              =   1.1933006729261E-01
(PID.TID 0000.0001) %MON seaice_hsnow_del2            =   1.4605735115783E-03
(PID.TID 0000.0001) // =======================================================
(PID.TID 0000.0001) // End MONITOR SEAICE statistics
(PID.TID 0000.0001) // =======================================================
 Compute Stats, Diag. #    211  SIarea    vol(   0 ): 1.456E+15  Parms: SM      M1      
 Compute Stats, Diag. #    214  SIheff    vol(   0 ): 1.456E+15  Parms: SM      M1      
 Compute Stats, Diag. #    216  SIhsnow   vol(   0 ): 1.456E+15  Parms: SM      M1      
 Compute Stats, Diag. #     83  sIceLoad  vol(   0 ): 1.456E+15  Parms: SM      U1      
 Compute Stats, Diag. #    220  SIuice    vol(   0 ): 1.383E+15  Parms: UU      M1      
 Compute Stats, Diag. #    221  SIvice    vol(   0 ): 1.391E+15  Parms: VV      M1      
 Compute Stats, Diag. #    222  SItaux    vol(   0 ): 1.383E+15  Parms: UU      U1      
 Compute Stats, Diag. #    223  SItauy    vol(   0 ): 1.391E+15  Parms: VV      U1      
 SEAICE_LSR: Residual Initial ipass,Uice,Vice=    1  3.90095301E-03  2.08416221E-03
 SEAICE_LSR (ipass=   1) iters,dU,Resid=     6  4.18795021E-05  5.32379809E-05
 SEAICE_LSR (ipass=   1) iters,dV,Resid=     6  4.21566615E-05  1.65623186E-05
 SEAICE_LSR: Residual Initial ipass,Uice,Vice=    2  3.27783538E-03  1.61029833E-03
 SEAICE_LSR (ipass=   2) iters,dU,Resid=     4  6.21221135E-05  7.23540272E-05
 SEAICE_LSR (ipass=   2) iters,dV,Resid=     4  6.87258735E-05  3.32460564E-05
 cg2d: Sum(rhs),rhsMax =  -7.90555607997664E+01  3.62282778748617E+01
(PID.TID 0000.0001)      cg2d_init_res =   1.90270929951657E-01
(PID.TID 0000.0001)      cg2d_iters(min,last) =      -1      10
(PID.TID 0000.0001)      cg2d_last_res =   6.21212356042255E-08
(PID.TID 0000.0001) // =======================================================
(PID.TID 0000.0001) // Begin MONITOR dynamic field statistics
(PID.TID 0000.0001) // =======================================================
(PID.TID 0000.0001) %MON time_tsnumber                =                 72081
(PID.TID 0000.0001) %MON time_secondsf                =   6.4872900000000E+07
(PID.TID 0000.0001) %MON dynstat_eta_max              =   1.2631910828571E+00
(PID.TID 0000.0001) %MON dynstat_eta_min              =  -1.5609574984106E+00
(PID.TID 0000.0001) %MON dynstat_eta_mean             =   3.3279844408656E-02
(PID.TID 0000.0001) %MON dynstat_eta_sd               =   6.1149340056892E-01
(PID.TID 0000.0001) %MON dynstat_eta_del2             =   1.5099199261030E-03
(PID.TID 0000.0001) %MON dynstat_uvel_max             =   4.0689628557439E-01
(PID.TID 0000.0001) %MON dynstat_uvel_min             =  -6.9203517039709E-01
(PID.TID 0000.0001) %MON dynstat_uvel_mean            =  -3.9422621229588E-04
(PID.TID 0000.0001) %MON dynstat_uvel_sd              =   1.2982825526230E-02
(PID.TID 0000.0001) %MON dynstat_uvel_del2            =   8.4580622661419E-05
(PID.TID 0000.0001) %MON dynstat_vvel_max             =   2.7233484007479E-01
(PID.TID 0000.0001) %MON dynstat_vvel_min             =  -4.1317191311398E-01
(PID.TID 0000.0001) %MON dynstat_vvel_mean            =   2.5205236785995E-04
(PID.TID 0000.0001) %MON dynstat_vvel_sd              =   1.3694204624571E-02
(PID.TID 0000.0001) %MON dynstat_vvel_del2            =   8.7560652329124E-05
(PID.TID 0000.0001) %MON dynstat_wvel_max             =   1.1997903833957E-04
(PID.TID 0000.0001) %MON dynstat_wvel_min             =  -1.9006124932013E-04
(PID.TID 0000.0001) %MON dynstat_wvel_mean            =  -7.7033002522488E-08
(PID.TID 0000.0001) %MON dynstat_wvel_sd              =   7.6683168054563E-06
(PID.TID 0000.0001) %MON dynstat_wvel_del2            =   6.7889846419177E-08
(PID.TID 0000.0001) %MON dynstat_theta_max            =   3.0921532523433E+01
(PID.TID 0000.0001) %MON dynstat_theta_min            =  -3.0131957472932E+00
(PID.TID 0000.0001) %MON dynstat_theta_mean           =   3.9091950145731E+00
(PID.TID 0000.0001) %MON dynstat_theta_sd             =   4.5716136257481E+00
(PID.TID 0000.0001) %MON dynstat_theta_del2           =   2.6390769188777E-03
(PID.TID 0000.0001) %MON dynstat_salt_max             =   4.1346808186525E+01
(PID.TID 0000.0001) %MON dynstat_salt_min             =   1.8519193571413E+01
(PID.TID 0000.0001) %MON dynstat_salt_mean            =   3.4771903175800E+01
(PID.TID 0000.0001) %MON dynstat_salt_sd              =   5.3222509720251E-01
(PID.TID 0000.0001) %MON dynstat_salt_del2            =   1.1254898367882E-03
(PID.TID 0000.0001) %MON dynstat_sst_max              =   3.0921532523433E+01
(PID.TID 0000.0001) %MON dynstat_sst_min              =  -1.9243217707196E+00
(PID.TID 0000.0001) %MON dynstat_sst_mean             =   1.8108782442704E+01
(PID.TID 0000.0001) %MON dynstat_sst_sd               =   9.8135169006839E+00
(PID.TID 0000.0001) %MON dynstat_sst_del2             =   1.4982549112994E-02
(PID.TID 0000.0001) %MON dynstat_sss_max              =   4.1346808186525E+01
(PID.TID 0000.0001) %MON dynstat_sss_min              =   1.8752396766988E+01
(PID.TID 0000.0001) %MON dynstat_sss_mean             =   3.4620719240170E+01
(PID.TID 0000.0001) %MON dynstat_sss_sd               =   1.4894302287508E+00
(PID.TID 0000.0001) %MON dynstat_sss_del2             =   1.2744777634696E-02
(PID.TID 0000.0001) %MON forcing_qnet_max             =   1.5306031494141E+03
(PID.TID 0000.0001) %MON forcing_qnet_min             =  -1.1355302934713E+03
(PID.TID 0000.0001) %MON forcing_qnet_mean            =  -3.3217662437811E+01
(PID.TID 0000.0001) %MON forcing_qnet_sd              =   1.9882754334843E+02
(PID.TID 0000.0001) %MON forcing_qnet_del2            =   3.3096366583520E+00
(PID.TID 0000.0001) %MON forcing_qsw_max              =   0.0000000000000E+00
(PID.TID 0000.0001) %MON forcing_qsw_min              =  -1.0486192050347E+02
(PID.TID 0000.0001) %MON forcing_qsw_mean             =  -1.8599207588398E+01
(PID.TID 0000.0001) %MON forcing_qsw_sd               =   2.7745371714916E+01
(PID.TID 0000.0001) %MON forcing_qsw_del2             =   1.4377893323855E-01
(PID.TID 0000.0001) %MON forcing_empmr_max            =   4.8437267541885E-03
(PID.TID 0000.0001) %MON forcing_empmr_min            =  -6.9639980792999E-02
(PID.TID 0000.0001) %MON forcing_empmr_mean           =  -2.1230526077875E-04
(PID.TID 0000.0001) %MON forcing_empmr_sd             =   3.0702648648427E-03
(PID.TID 0000.0001) %MON forcing_empmr_del2           =   1.2143095486876E-04
(PID.TID 0000.0001) %MON forcing_fu_max               =   2.8346797326053E-01
(PID.TID 0000.0001) %MON forcing_fu_min               =  -3.4365887397770E-01
(PID.TID 0000.0001) %MON forcing_fu_mean              =  -4.0131856347724E-03
(PID.TID 0000.0001) %MON forcing_fu_sd                =   5.8906155556902E-02
(PID.TID 0000.0001) %MON forcing_fu_del2              =   5.8166619453633E-04
(PID.TID 0000.0001) %MON forcing_fv_max               =   2.8088087981691E-01
(PID.TID 0000.0001) %MON forcing_fv_min               =  -2.5520047825454E-01
(PID.TID 0000.0001) %MON forcing_fv_mean              =  -1.4752957284284E-02
(PID.TID 0000.0001) %MON forcing_fv_sd                =   6.0723374279905E-02
(PID.TID 0000.0001) %MON forcing_fv_del2              =   5.1801034067402E-04
(PID.TID 0000.0001) %MON trAdv_CFL_u_max              =   1.9995461871146E-03
(PID.TID 0000.0001) %MON trAdv_CFL_v_max              =   1.3527067823773E-03
(PID.TID 0000.0001) %MON trAdv_CFL_w_max              =   1.2385852930453E-03
(PID.TID 0000.0001) %MON advcfl_uvel_max              =   1.9964107685449E-03
(PID.TID 0000.0001) %MON advcfl_vvel_max              =   1.3483306653108E-03
(PID.TID 0000.0001) %MON advcfl_wvel_max              =   2.4222602014956E-03
(PID.TID 0000.0001) %MON advcfl_W_hf_max              =   1.3224553140713E-03
(PID.TID 0000.0001) %MON pe_b_mean                    =   4.9960707398271E-04
(PID.TID 0000.0001) %MON ke_max                       =   1.8583047476089E-01
(PID.TID 0000.0001) %MON ke_mean                      =   1.6453979184148E-04
(PID.TID 0000.0001) %MON ke_vol                       =   1.3398144882784E+18
(PID.TID 0000.0001) %MON vort_r_min                   =  -2.2274700734461E-06
(PID.TID 0000.0001) %MON vort_r_max                   =   2.7052448839910E-06
(PID.TID 0000.0001) %MON vort_a_mean                  =  -2.0549865324846E-05
(PID.TID 0000.0001) %MON vort_a_sd                    =   7.5259682489211E-05
(PID.TID 0000.0001) %MON vort_p_mean                  =  -2.4783241765408E-05
(PID.TID 0000.0001) %MON vort_p_sd                    =   1.2811921503451E-04
(PID.TID 0000.0001) %MON surfExpan_theta_mean         =  -5.2905817461366E-06
(PID.TID 0000.0001) %MON surfExpan_salt_mean          =   1.0774208414289E-06
(PID.TID 0000.0001) // =======================================================
(PID.TID 0000.0001) // End MONITOR dynamic field statistics
(PID.TID 0000.0001) // =======================================================
(PID.TID 0000.0001) // =======================================================
(PID.TID 0000.0001) // Begin MONITOR SEAICE statistics
(PID.TID 0000.0001) // =======================================================
(PID.TID 0000.0001) %MON seaice_tsnumber              =                 72081
(PID.TID 0000.0001) %MON seaice_time_sec              =   6.4872900000000E+07
(PID.TID 0000.0001) %MON seaice_uice_max              =   3.8972896738891E-01
(PID.TID 0000.0001) %MON seaice_uice_min              =  -4.5720147623327E-01
(PID.TID 0000.0001) %MON seaice_uice_mean             =  -5.2754652028269E-03
(PID.TID 0000.0001) %MON seaice_uice_sd               =   5.9937468824023E-02
(PID.TID 0000.0001) %MON seaice_uice_del2             =   8.5992318975537E-04
(PID.TID 0000.0001) %MON seaice_vice_max              =   2.0923008562069E-01
(PID.TID 0000.0001) %MON seaice_vice_min              =  -3.2398303722698E-01
(PID.TID 0000.0001) %MON seaice_vice_mean             =  -1.4030915202549E-02
(PID.TID 0000.0001) %MON seaice_vice_sd               =   6.1894272788406E-02
(PID.TID 0000.0001) %MON seaice_vice_del2             =   8.2187366163484E-04
(PID.TID 0000.0001) %MON seaice_area_max              =   1.0000000000000E+00
(PID.TID 0000.0001) %MON seaice_area_min              =   0.0000000000000E+00
(PID.TID 0000.0001) %MON seaice_area_mean             =   6.8926952845582E-02
(PID.TID 0000.0001) %MON seaice_area_sd               =   2.3700165939052E-01
(PID.TID 0000.0001) %MON seaice_area_del2             =   1.7307756507923E-03
(PID.TID 0000.0001) %MON seaice_heff_max              =   8.5500069201965E+00
(PID.TID 0000.0001) %MON seaice_heff_min              =   0.0000000000000E+00
(PID.TID 0000.0001) %MON seaice_heff_mean             =   2.0591089482550E-01
(PID.TID 0000.0001) %MON seaice_heff_sd               =   9.8019431889848E-01
(PID.TID 0000.0001) %MON seaice_heff_del2             =   6.2310365454127E-03
(PID.TID 0000.0001) %MON seaice_hsnow_max             =   2.0320791409023E+00
(PID.TID 0000.0001) %MON seaice_hsnow_min             =   0.0000000000000E+00
(PID.TID 0000.0001) %MON seaice_hsnow_mean            =   2.2705975699654E-02
(PID.TID 0000.0001) %MON seaice_hsnow_sd              =   1.1932613930776E-01
(PID.TID 0000.0001) %MON seaice_hsnow_del2            =   1.4605195804547E-03
(PID.TID 0000.0001) // =======================================================
(PID.TID 0000.0001) // End MONITOR SEAICE statistics
(PID.TID 0000.0001) // =======================================================
 Computing Diagnostic #    211  SIarea       Counter:       1   Parms: SM      M1      
 Computing Diagnostic #    214  SIheff       Counter:       1   Parms: SM      M1      
 Computing Diagnostic #    216  SIhsnow      Counter:       1   Parms: SM      M1      
 Computing Diagnostic #     83  sIceLoad     Counter:       1   Parms: SM      U1      
 Computing Diagnostic #    220  SIuice       Counter:       1   Parms: UU      M1      
           Vector  Mate for  SIuice       Diagnostic #    221  SIvice   exists 
 Computing Diagnostic #    221  SIvice       Counter:       1   Parms: VV      M1      
           Vector  Mate for  SIvice       Diagnostic #    220  SIuice   exists 
 Computing Diagnostic #    222  SItaux       Counter:       1   Parms: UU      U1      
           Vector  Mate for  SItaux       Diagnostic #    223  SItauy   exists 
 Computing Diagnostic #    223  SItauy       Counter:       1   Parms: VV      U1      
           Vector  Mate for  SItauy       Diagnostic #    222  SItaux   exists 
 Computing Diagnostic #      1  SDIAG1       Counter:       1   Parms: SM      L1      
 Computing Diagnostic #    282  SIareaN      Counter:       1   Parms: SM      MX      
 Computing Diagnostic #    281  SIheffN      Counter:       1   Parms: SM      MX      
 Computing Diagnostic #    283  SIhsnowN     Counter:       1   Parms: SM      MX      
 SEAICE_LSR: Residual Initial ipass,Uice,Vice=    1  4.26860988E-03  2.10598803E-03
 SEAICE_LSR (ipass=   1) iters,dU,Resid=     6  6.85544462E-05  6.84305389E-05
 SEAICE_LSR (ipass=   1) iters,dV,Resid=     6  2.28388668E-05  1.73513125E-05
 SEAICE_LSR: Residual Initial ipass,Uice,Vice=    2  3.48634185E-03  1.64744085E-03
 SEAICE_LSR (ipass=   2) iters,dU,Resid=     6  3.96824817E-05  4.25395777E-05
 SEAICE_LSR (ipass=   2) iters,dV,Resid=     6  1.37210322E-05  1.49172349E-05
 cg2d: Sum(rhs),rhsMax =  -7.94754976776036E+01  3.62350635911738E+01
(PID.TID 0000.0001)      cg2d_init_res =   1.91973280954103E-01
(PID.TID 0000.0001)      cg2d_iters(min,last) =      -1      10
(PID.TID 0000.0001)      cg2d_last_res =   5.29637175176126E-08
(PID.TID 0000.0001) // =======================================================
(PID.TID 0000.0001) // Begin MONITOR dynamic field statistics
(PID.TID 0000.0001) // =======================================================
(PID.TID 0000.0001) %MON time_tsnumber                =                 72082
(PID.TID 0000.0001) %MON time_secondsf                =   6.4873800000000E+07
(PID.TID 0000.0001) %MON dynstat_eta_max              =   1.2296926411965E+00
(PID.TID 0000.0001) %MON dynstat_eta_min              =  -1.5598461501145E+00
(PID.TID 0000.0001) %MON dynstat_eta_mean             =   3.3462890879788E-02
(PID.TID 0000.0001) %MON dynstat_eta_sd               =   6.1141103057461E-01
(PID.TID 0000.0001) %MON dynstat_eta_del2             =   1.4608422143903E-03
(PID.TID 0000.0001) %MON dynstat_uvel_max             =   4.1622501093976E-01
(PID.TID 0000.0001) %MON dynstat_uvel_min             =  -7.0011406821317E-01
(PID.TID 0000.0001) %MON dynstat_uvel_mean            =  -4.0842964024651E-04
(PID.TID 0000.0001) %MON dynstat_uvel_sd              =   1.2967900197342E-02
(PID.TID 0000.0001) %MON dynstat_uvel_del2            =   8.4610166981456E-05
(PID.TID 0000.0001) %MON dynstat_vvel_max             =   2.9315017540470E-01
(PID.TID 0000.0001) %MON dynstat_vvel_min             =  -4.2896722828575E-01
(PID.TID 0000.0001) %MON dynstat_vvel_mean            =   2.3253878443686E-04
(PID.TID 0000.0001) %MON dynstat_vvel_sd              =   1.3704705459983E-02
(PID.TID 0000.0001) %MON dynstat_vvel_del2            =   8.8123577800249E-05
(PID.TID 0000.0001) %MON dynstat_wvel_max             =   1.1673834522232E-04
(PID.TID 0000.0001) %MON dynstat_wvel_min             =  -1.9010358291261E-04
(PID.TID 0000.0001) %MON dynstat_wvel_mean            =  -7.0676847911732E-08
(PID.TID 0000.0001) %MON dynstat_wvel_sd              =   7.6536199246121E-06
(PID.TID 0000.0001) %MON dynstat_wvel_del2            =   6.7639043605773E-08
(PID.TID 0000.0001) %MON dynstat_theta_max            =   3.0921306433691E+01
(PID.TID 0000.0001) %MON dynstat_theta_min            =  -3.0137316612610E+00
(PID.TID 0000.0001) %MON dynstat_theta_mean           =   3.9091981213819E+00
(PID.TID 0000.0001) %MON dynstat_theta_sd             =   4.5716254484787E+00
(PID.TID 0000.0001) %MON dynstat_theta_del2           =   2.6389731359807E-03
(PID.TID 0000.0001) %MON dynstat_salt_max             =   4.1346773023355E+01
(PID.TID 0000.0001) %MON dynstat_salt_min             =   1.8519203588859E+01
(PID.TID 0000.0001) %MON dynstat_salt_mean            =   3.4771901562724E+01
(PID.TID 0000.0001) %MON dynstat_salt_sd              =   5.3223588715068E-01
(PID.TID 0000.0001) %MON dynstat_salt_del2            =   1.1277992452044E-03
(PID.TID 0000.0001) %MON dynstat_sst_max              =   3.0921306433691E+01
(PID.TID 0000.0001) %MON dynstat_sst_min              =  -1.9232660642083E+00
(PID.TID 0000.0001) %MON dynstat_sst_mean             =   1.8108915497152E+01
(PID.TID 0000.0001) %MON dynstat_sst_sd               =   9.8136623050651E+00
(PID.TID 0000.0001) %MON dynstat_sst_del2             =   1.4980857341162E-02
(PID.TID 0000.0001) %MON dynstat_sss_max              =   4.1346773023355E+01
(PID.TID 0000.0001) %MON dynstat_sss_min              =   1.8752411857228E+01
(PID.TID 0000.0001) %MON dynstat_sss_mean             =   3.4620595495388E+01
(PID.TID 0000.0001) %MON dynstat_sss_sd               =   1.4897027202220E+00
(PID.TID 0000.0001) %MON dynstat_sss_del2             =   1.2777021485696E-02
(PID.TID 0000.0001) %MON forcing_qnet_max             =   1.5127427978516E+03
(PID.TID 0000.0001) %MON forcing_qnet_min             =  -1.6756758248083E+03
(PID.TID 0000.0001) %MON forcing_qnet_mean            =  -3.3928205641270E+01
(PID.TID 0000.0001) %MON forcing_qnet_sd              =   1.9850889850424E+02
(PID.TID 0000.0001) %MON forcing_qnet_del2            =   3.4259230413475E+00
(PID.TID 0000.0001) %MON forcing_qsw_max              =   0.0000000000000E+00
(PID.TID 0000.0001) %MON forcing_qsw_min              =  -1.0526295383116E+02
(PID.TID 0000.0001) %MON forcing_qsw_mean             =  -1.8778455996585E+01
(PID.TID 0000.0001) %MON forcing_qsw_sd               =   2.7844033048848E+01
(PID.TID 0000.0001) %MON forcing_qsw_del2             =   1.4381185198385E-01
(PID.TID 0000.0001) %MON forcing_empmr_max            =   4.7938362695277E-03
(PID.TID 0000.0001) %MON forcing_empmr_min            =  -6.8923398852348E-02
(PID.TID 0000.0001) %MON forcing_empmr_mean           =  -2.1050344180187E-04
(PID.TID 0000.0001) %MON forcing_empmr_sd             =   3.0389400610544E-03
(PID.TID 0000.0001) %MON forcing_empmr_del2           =   1.2016853146176E-04
(PID.TID 0000.0001) %MON forcing_fu_max               =   2.7740938573345E-01
(PID.TID 0000.0001) %MON forcing_fu_min               =  -3.3802579086899E-01
(PID.TID 0000.0001) %MON forcing_fu_mean              =  -4.1307777513223E-03
(PID.TID 0000.0001) %MON forcing_fu_sd                =   5.8451187077051E-02
(PID.TID 0000.0001) %MON forcing_fu_del2              =   5.7813099322898E-04
(PID.TID 0000.0001) %MON forcing_fv_max               =   2.7725982873785E-01
(PID.TID 0000.0001) %MON forcing_fv_min               =  -2.5541161024495E-01
(PID.TID 0000.0001) %MON forcing_fv_mean              =  -1.4779769998525E-02
(PID.TID 0000.0001) %MON forcing_fv_sd                =   6.0603618569255E-02
(PID.TID 0000.0001) %MON forcing_fv_del2              =   5.1592011908584E-04
(PID.TID 0000.0001) %MON trAdv_CFL_u_max              =   2.0240404866283E-03
(PID.TID 0000.0001) %MON trAdv_CFL_v_max              =   1.4078014936178E-03
(PID.TID 0000.0001) %MON trAdv_CFL_w_max              =   1.1758200523476E-03
(PID.TID 0000.0001) %MON advcfl_uvel_max              =   2.0197170964426E-03
(PID.TID 0000.0001) %MON advcfl_vvel_max              =   1.3998765403772E-03
(PID.TID 0000.0001) %MON advcfl_wvel_max              =   2.3973356122556E-03
(PID.TID 0000.0001) %MON advcfl_W_hf_max              =   1.3193047022226E-03
(PID.TID 0000.0001) %MON pe_b_mean                    =   4.9948913351421E-04
(PID.TID 0000.0001) %MON ke_max                       =   1.7917586181843E-01
(PID.TID 0000.0001) %MON ke_mean                      =   1.6449621065661E-04
(PID.TID 0000.0001) %MON ke_vol                       =   1.3398145554568E+18
(PID.TID 0000.0001) %MON vort_r_min                   =  -2.2534738141251E-06
(PID.TID 0000.0001) %MON vort_r_max                   =   2.7384137698970E-06
(PID.TID 0000.0001) %MON vort_a_mean                  =  -2.0549865324846E-05
(PID.TID 0000.0001) %MON vort_a_sd                    =   7.5259678114744E-05
(PID.TID 0000.0001) %MON vort_p_mean                  =  -2.4783240478041E-05
(PID.TID 0000.0001) %MON vort_p_sd                    =   1.2811921618217E-04
(PID.TID 0000.0001) %MON surfExpan_theta_mean         =  -5.1739993838293E-06
(PID.TID 0000.0001) %MON surfExpan_salt_mean          =   1.0583747045908E-06
(PID.TID 0000.0001) // =======================================================
(PID.TID 0000.0001) // End MONITOR dynamic field statistics
(PID.TID 0000.0001) // =======================================================
(PID.TID 0000.0001) // =======================================================
(PID.TID 0000.0001) // Begin MONITOR SEAICE statistics
(PID.TID 0000.0001) // =======================================================
(PID.TID 0000.0001) %MON seaice_tsnumber              =                 72082
(PID.TID 0000.0001) %MON seaice_time_sec              =   6.4873800000000E+07
(PID.TID 0000.0001) %MON seaice_uice_max              =   4.0058020989919E-01
(PID.TID 0000.0001) %MON seaice_uice_min              =  -4.5208092924946E-01
(PID.TID 0000.0001) %MON seaice_uice_mean             =  -5.4508053829717E-03
(PID.TID 0000.0001) %MON seaice_uice_sd               =   5.9616485375181E-02
(PID.TID 0000.0001) %MON seaice_uice_del2             =   8.5499826793675E-04
(PID.TID 0000.0001) %MON seaice_vice_max              =   2.1282756910167E-01
(PID.TID 0000.0001) %MON seaice_vice_min              =  -3.2576976259725E-01
(PID.TID 0000.0001) %MON seaice_vice_mean             =  -1.4067896867379E-02
(PID.TID 0000.0001) %MON seaice_vice_sd               =   6.2019479396502E-02
(PID.TID 0000.0001) %MON seaice_vice_del2             =   8.2774503551343E-04
(PID.TID 0000.0001) %MON seaice_area_max              =   1.0000000000000E+00
(PID.TID 0000.0001) %MON seaice_area_min              =   0.0000000000000E+00
(PID.TID 0000.0001) %MON seaice_area_mean             =   6.8919979141129E-02
(PID.TID 0000.0001) %MON seaice_area_sd               =   2.3698349779934E-01
(PID.TID 0000.0001) %MON seaice_area_del2             =   1.7302435950883E-03
(PID.TID 0000.0001) %MON seaice_heff_max              =   8.5503740256429E+00
(PID.TID 0000.0001) %MON seaice_heff_min              =   0.0000000000000E+00
(PID.TID 0000.0001) %MON seaice_heff_mean             =   2.0590195014943E-01
(PID.TID 0000.0001) %MON seaice_heff_sd               =   9.8018598506580E-01
(PID.TID 0000.0001) %MON seaice_heff_del2             =   6.2307019321015E-03
(PID.TID 0000.0001) %MON seaice_hsnow_max             =   2.0320877405836E+00
(PID.TID 0000.0001) %MON seaice_hsnow_min             =   0.0000000000000E+00
(PID.TID 0000.0001) %MON seaice_hsnow_mean            =   2.2704603061709E-02
(PID.TID 0000.0001) %MON seaice_hsnow_sd              =   1.1932221799737E-01
(PID.TID 0000.0001) %MON seaice_hsnow_del2            =   1.4604643388294E-03
(PID.TID 0000.0001) // =======================================================
(PID.TID 0000.0001) // End MONITOR SEAICE statistics
(PID.TID 0000.0001) // =======================================================
 SEAICE_LSR: Residual Initial ipass,Uice,Vice=    1  4.56298888E-03  2.06346834E-03
 SEAICE_LSR (ipass=   1) iters,dU,Resid=     6  7.76926815E-05  7.63170145E-05
 SEAICE_LSR (ipass=   1) iters,dV,Resid=     6  1.71695482E-05  1.79937175E-05
 SEAICE_LSR: Residual Initial ipass,Uice,Vice=    2  3.53944259E-03  1.63990328E-03
 SEAICE_LSR (ipass=   2) iters,dU,Resid=     6  4.32136281E-05  4.58561908E-05
 SEAICE_LSR (ipass=   2) iters,dV,Resid=     6  1.09950323E-05  1.60863497E-05
 cg2d: Sum(rhs),rhsMax =  -7.98987016062464E+01  3.62377628450852E+01
(PID.TID 0000.0001)      cg2d_init_res =   1.93300402272904E-01
(PID.TID 0000.0001)      cg2d_iters(min,last) =      -1      10
(PID.TID 0000.0001)      cg2d_last_res =   4.49458069781299E-08
(PID.TID 0000.0001) // =======================================================
(PID.TID 0000.0001) // Begin MONITOR dynamic field statistics
(PID.TID 0000.0001) // =======================================================
(PID.TID 0000.0001) %MON time_tsnumber                =                 72083
(PID.TID 0000.0001) %MON time_secondsf                =   6.4874700000000E+07
(PID.TID 0000.0001) %MON dynstat_eta_max              =   1.1894454569787E+00
(PID.TID 0000.0001) %MON dynstat_eta_min              =  -1.5587403823319E+00
(PID.TID 0000.0001) %MON dynstat_eta_mean             =   3.3643585490543E-02
(PID.TID 0000.0001) %MON dynstat_eta_sd               =   6.1132604457590E-01
(PID.TID 0000.0001) %MON dynstat_eta_del2             =   1.4136413503637E-03
(PID.TID 0000.0001) %MON dynstat_uvel_max             =   4.2195874491899E-01
(PID.TID 0000.0001) %MON dynstat_uvel_min             =  -7.0623740248316E-01
(PID.TID 0000.0001) %MON dynstat_uvel_mean            =  -4.2231309829504E-04
(PID.TID 0000.0001) %MON dynstat_uvel_sd              =   1.2953707498332E-02
(PID.TID 0000.0001) %MON dynstat_uvel_del2            =   8.4696706706803E-05
(PID.TID 0000.0001) %MON dynstat_vvel_max             =   3.0984626362335E-01
(PID.TID 0000.0001) %MON dynstat_vvel_min             =  -4.3784833639107E-01
(PID.TID 0000.0001) %MON dynstat_vvel_mean            =   2.1425376764614E-04
(PID.TID 0000.0001) %MON dynstat_vvel_sd              =   1.3713270806522E-02
(PID.TID 0000.0001) %MON dynstat_vvel_del2            =   8.8509672966623E-05
(PID.TID 0000.0001) %MON dynstat_wvel_max             =   1.1253107855539E-04
(PID.TID 0000.0001) %MON dynstat_wvel_min             =  -1.9015607166098E-04
(PID.TID 0000.0001) %MON dynstat_wvel_mean            =  -6.4634370219702E-08
(PID.TID 0000.0001) %MON dynstat_wvel_sd              =   7.6386244080861E-06
(PID.TID 0000.0001) %MON dynstat_wvel_del2            =   6.7359447847827E-08
(PID.TID 0000.0001) %MON dynstat_theta_max            =   3.0921072133970E+01
(PID.TID 0000.0001) %MON dynstat_theta_min            =  -3.0142804178325E+00
(PID.TID 0000.0001) %MON dynstat_theta_mean           =   3.9092012553763E+00
(PID.TID 0000.0001) %MON dynstat_theta_sd             =   4.5716374451480E+00
(PID.TID 0000.0001) %MON dynstat_theta_del2           =   2.6388670287537E-03
(PID.TID 0000.0001) %MON dynstat_salt_max             =   4.1346739891526E+01
(PID.TID 0000.0001) %MON dynstat_salt_min             =   1.8519213612719E+01
(PID.TID 0000.0001) %MON dynstat_salt_mean            =   3.4771899983406E+01
(PID.TID 0000.0001) %MON dynstat_salt_sd              =   5.3224651345406E-01
(PID.TID 0000.0001) %MON dynstat_salt_del2            =   1.1300573580052E-03
(PID.TID 0000.0001) %MON dynstat_sst_max              =   3.0921072133970E+01
(PID.TID 0000.0001) %MON dynstat_sst_min              =  -1.9218095024584E+00
(PID.TID 0000.0001) %MON dynstat_sst_mean             =   1.8109051948758E+01
(PID.TID 0000.0001) %MON dynstat_sst_sd               =   9.8138103518627E+00
(PID.TID 0000.0001) %MON dynstat_sst_del2             =   1.4979073618038E-02
(PID.TID 0000.0001) %MON dynstat_sss_max              =   4.1346739891526E+01
(PID.TID 0000.0001) %MON dynstat_sss_min              =   1.8752426747477E+01
(PID.TID 0000.0001) %MON dynstat_sss_mean             =   3.4620474395383E+01
(PID.TID 0000.0001) %MON dynstat_sss_sd               =   1.4899704401947E+00
(PID.TID 0000.0001) %MON dynstat_sss_del2             =   1.2808535018183E-02
(PID.TID 0000.0001) %MON forcing_qnet_max             =   1.4959760742188E+03
(PID.TID 0000.0001) %MON forcing_qnet_min             =  -1.9981536985588E+03
(PID.TID 0000.0001) %MON forcing_qnet_mean            =  -3.4696863147593E+01
(PID.TID 0000.0001) %MON forcing_qnet_sd              =   1.9781250745793E+02
(PID.TID 0000.0001) %MON forcing_qnet_del2            =   3.5124871264245E+00
(PID.TID 0000.0001) %MON forcing_qsw_max              =   0.0000000000000E+00
(PID.TID 0000.0001) %MON forcing_qsw_min              =  -1.0586410270111E+02
(PID.TID 0000.0001) %MON forcing_qsw_mean             =  -1.8911769853920E+01
(PID.TID 0000.0001) %MON forcing_qsw_sd               =   2.7921455229862E+01
(PID.TID 0000.0001) %MON forcing_qsw_del2             =   1.4357906214649E-01
(PID.TID 0000.0001) %MON forcing_empmr_max            =   4.7444375231862E-03
(PID.TID 0000.0001) %MON forcing_empmr_min            =  -6.8213537335396E-02
(PID.TID 0000.0001) %MON forcing_empmr_mean           =  -2.0779880236860E-04
(PID.TID 0000.0001) %MON forcing_empmr_sd             =   3.0077897569010E-03
(PID.TID 0000.0001) %MON forcing_empmr_del2           =   1.1891730017199E-04
(PID.TID 0000.0001) %MON forcing_fu_max               =   2.7248044254893E-01
(PID.TID 0000.0001) %MON forcing_fu_min               =  -3.4021257334153E-01
(PID.TID 0000.0001) %MON forcing_fu_mean              =  -4.2668280561938E-03
(PID.TID 0000.0001) %MON forcing_fu_sd                =   5.8067669637639E-02
(PID.TID 0000.0001) %MON forcing_fu_del2              =   5.7579877368117E-04
(PID.TID 0000.0001) %MON forcing_fv_max               =   2.7478138585599E-01
(PID.TID 0000.0001) %MON forcing_fv_min               =  -2.5541081499464E-01
(PID.TID 0000.0001) %MON forcing_fv_mean              =  -1.4797949851963E-02
(PID.TID 0000.0001) %MON forcing_fv_sd                =   6.0491755548292E-02
(PID.TID 0000.0001) %MON forcing_fv_del2              =   5.1399035565976E-04
(PID.TID 0000.0001) %MON trAdv_CFL_u_max              =   2.0429806226192E-03
(PID.TID 0000.0001) %MON trAdv_CFL_v_max              =   1.4388750862096E-03
(PID.TID 0000.0001) %MON trAdv_CFL_w_max              =   1.1741345975740E-03
(PID.TID 0000.0001) %MON advcfl_uvel_max              =   2.0373819363220E-03
(PID.TID 0000.0001) %MON advcfl_vvel_max              =   1.4288588356889E-03
(PID.TID 0000.0001) %MON advcfl_wvel_max              =   2.3726447768833E-03
(PID.TID 0000.0001) %MON advcfl_W_hf_max              =   1.3129627289198E-03
(PID.TID 0000.0001) %MON pe_b_mean                    =   4.9936682888051E-04
(PID.TID 0000.0001) %MON ke_max                       =   1.7245604809571E-01
(PID.TID 0000.0001) %MON ke_mean                      =   1.6443768411222E-04
(PID.TID 0000.0001) %MON ke_vol                       =   1.3398146220649E+18
(PID.TID 0000.0001) %MON vort_r_min                   =  -2.2731831358757E-06
(PID.TID 0000.0001) %MON vort_r_max                   =   2.7619386846472E-06
(PID.TID 0000.0001) %MON vort_a_mean                  =  -2.0549865324846E-05
(PID.TID 0000.0001) %MON vort_a_sd                    =   7.5259674018791E-05
(PID.TID 0000.0001) %MON vort_p_mean                  =  -2.4783239214903E-05
(PID.TID 0000.0001) %MON vort_p_sd                    =   1.2811921844054E-04
(PID.TID 0000.0001) %MON surfExpan_theta_mean         =  -5.0367715169848E-06
(PID.TID 0000.0001) %MON surfExpan_salt_mean          =   1.0380155792132E-06
(PID.TID 0000.0001) // =======================================================
(PID.TID 0000.0001) // End MONITOR dynamic field statistics
(PID.TID 0000.0001) // =======================================================
(PID.TID 0000.0001) // =======================================================
(PID.TID 0000.0001) // Begin MONITOR SEAICE statistics
(PID.TID 0000.0001) // =======================================================
(PID.TID 0000.0001) %MON seaice_tsnumber              =                 72083
(PID.TID 0000.0001) %MON seaice_time_sec              =   6.4874700000000E+07
(PID.TID 0000.0001) %MON seaice_uice_max              =   4.0778288412647E-01
(PID.TID 0000.0001) %MON seaice_uice_min              =  -4.4613535118537E-01
(PID.TID 0000.0001) %MON seaice_uice_mean             =  -5.6353261446927E-03
(PID.TID 0000.0001) %MON seaice_uice_sd               =   5.9304179291782E-02
(PID.TID 0000.0001) %MON seaice_uice_del2             =   8.5029714362306E-04
(PID.TID 0000.0001) %MON seaice_vice_max              =   2.1583084182755E-01
(PID.TID 0000.0001) %MON seaice_vice_min              =  -3.3493269138410E-01
(PID.TID 0000.0001) %MON seaice_vice_mean             =  -1.4110919506705E-02
(PID.TID 0000.0001) %MON seaice_vice_sd               =   6.2136414164764E-02
(PID.TID 0000.0001) %MON seaice_vice_del2             =   8.3289957075213E-04
(PID.TID 0000.0001) %MON seaice_area_max              =   1.0000000000000E+00
(PID.TID 0000.0001) %MON seaice_area_min              =   0.0000000000000E+00
(PID.TID 0000.0001) %MON seaice_area_mean             =   6.8912973791076E-02
(PID.TID 0000.0001) %MON seaice_area_sd               =   2.3696526814734E-01
(PID.TID 0000.0001) %MON seaice_area_del2             =   1.7297168416048E-03
(PID.TID 0000.0001) %MON seaice_heff_max              =   8.5507299110874E+00
(PID.TID 0000.0001) %MON seaice_heff_min              =   0.0000000000000E+00
(PID.TID 0000.0001) %MON seaice_heff_mean             =   2.0589294962984E-01
(PID.TID 0000.0001) %MON seaice_heff_sd               =   9.8017733341198E-01
(PID.TID 0000.0001) %MON seaice_heff_del2             =   6.2303660622955E-03
(PID.TID 0000.0001) %MON seaice_hsnow_max             =   2.0320962432580E+00
(PID.TID 0000.0001) %MON seaice_hsnow_min             =   0.0000000000000E+00
(PID.TID 0000.0001) %MON seaice_hsnow_mean            =   2.2703268275354E-02
(PID.TID 0000.0001) %MON seaice_hsnow_sd              =   1.1931831980461E-01
(PID.TID 0000.0001) %MON seaice_hsnow_del2            =   1.4604074384760E-03
(PID.TID 0000.0001) // =======================================================
(PID.TID 0000.0001) // End MONITOR SEAICE statistics
(PID.TID 0000.0001) // =======================================================
 SEAICE_LSR: Residual Initial ipass,Uice,Vice=    1  4.68793669E-03  1.96367475E-03
 SEAICE_LSR (ipass=   1) iters,dU,Resid=     6  8.15165869E-05  8.16756824E-05
 SEAICE_LSR (ipass=   1) iters,dV,Resid=     6  1.31161763E-05  1.80295070E-05
 SEAICE_LSR: Residual Initial ipass,Uice,Vice=    2  3.43571596E-03  1.56022017E-03
 SEAICE_LSR (ipass=   2) iters,dU,Resid=     6  4.57198000E-05  4.93403122E-05
 SEAICE_LSR (ipass=   2) iters,dV,Resid=     6  8.64757024E-06  1.64785133E-05
 cg2d: Sum(rhs),rhsMax =  -8.03250886833745E+01  3.62372850747584E+01
(PID.TID 0000.0001)      cg2d_init_res =   1.94087089098509E-01
(PID.TID 0000.0001)      cg2d_iters(min,last) =      -1      10
(PID.TID 0000.0001)      cg2d_last_res =   4.02230891057915E-08
(PID.TID 0000.0001) // =======================================================
(PID.TID 0000.0001) // Begin MONITOR dynamic field statistics
(PID.TID 0000.0001) // =======================================================
(PID.TID 0000.0001) %MON time_tsnumber                =                 72084
(PID.TID 0000.0001) %MON time_secondsf                =   6.4875600000000E+07
(PID.TID 0000.0001) %MON dynstat_eta_max              =   1.1427112277579E+00
(PID.TID 0000.0001) %MON dynstat_eta_min              =  -1.5576579919518E+00
(PID.TID 0000.0001) %MON dynstat_eta_mean             =   3.3822681773290E-02
(PID.TID 0000.0001) %MON dynstat_eta_sd               =   6.1124025005439E-01
(PID.TID 0000.0001) %MON dynstat_eta_del2             =   1.3706308689086E-03
(PID.TID 0000.0001) %MON dynstat_uvel_max             =   4.2414049857025E-01
(PID.TID 0000.0001) %MON dynstat_uvel_min             =  -7.1029419271232E-01
(PID.TID 0000.0001) %MON dynstat_uvel_mean            =  -4.3568149793307E-04
(PID.TID 0000.0001) %MON dynstat_uvel_sd              =   1.2940297653067E-02
(PID.TID 0000.0001) %MON dynstat_uvel_del2            =   8.4821924051894E-05
(PID.TID 0000.0001) %MON dynstat_vvel_max             =   3.2230392592681E-01
(PID.TID 0000.0001) %MON dynstat_vvel_min             =  -4.3991491123264E-01
(PID.TID 0000.0001) %MON dynstat_vvel_mean            =   1.9741539969003E-04
(PID.TID 0000.0001) %MON dynstat_vvel_sd              =   1.3719548207670E-02
(PID.TID 0000.0001) %MON dynstat_vvel_del2            =   8.8695117084248E-05
(PID.TID 0000.0001) %MON dynstat_wvel_max             =   1.0744664806374E-04
(PID.TID 0000.0001) %MON dynstat_wvel_min             =  -1.9022680297884E-04
(PID.TID 0000.0001) %MON dynstat_wvel_mean            =  -5.9987564128934E-08
(PID.TID 0000.0001) %MON dynstat_wvel_sd              =   7.6243293825678E-06
(PID.TID 0000.0001) %MON dynstat_wvel_del2            =   6.7061425678902E-08
(PID.TID 0000.0001) %MON dynstat_theta_max            =   3.0920829482163E+01
(PID.TID 0000.0001) %MON dynstat_theta_min            =  -3.0148412447305E+00
(PID.TID 0000.0001) %MON dynstat_theta_mean           =   3.9092043755331E+00
(PID.TID 0000.0001) %MON dynstat_theta_sd             =   4.5716494108411E+00
(PID.TID 0000.0001) %MON dynstat_theta_del2           =   2.6387565130476E-03
(PID.TID 0000.0001) %MON dynstat_salt_max             =   4.1346709855532E+01
(PID.TID 0000.0001) %MON dynstat_salt_min             =   1.8519223644426E+01
(PID.TID 0000.0001) %MON dynstat_salt_mean            =   3.4771898411703E+01
(PID.TID 0000.0001) %MON dynstat_salt_sd              =   5.3225695079206E-01
(PID.TID 0000.0001) %MON dynstat_salt_del2            =   1.1322645546815E-03
(PID.TID 0000.0001) %MON dynstat_sst_max              =   3.0920829482163E+01
(PID.TID 0000.0001) %MON dynstat_sst_min              =  -1.9190137736388E+00
(PID.TID 0000.0001) %MON dynstat_sst_mean             =   1.8109188117274E+01
(PID.TID 0000.0001) %MON dynstat_sst_sd               =   9.8139585230596E+00
(PID.TID 0000.0001) %MON dynstat_sst_del2             =   1.4977148706599E-02
(PID.TID 0000.0001) %MON dynstat_sss_max              =   4.1346709855532E+01
(PID.TID 0000.0001) %MON dynstat_sss_min              =   1.8752441442836E+01
(PID.TID 0000.0001) %MON dynstat_sss_mean             =   3.4620354032631E+01
(PID.TID 0000.0001) %MON dynstat_sss_sd               =   1.4902325391987E+00
(PID.TID 0000.0001) %MON dynstat_sss_del2             =   1.2839326262813E-02
(PID.TID 0000.0001) %MON forcing_qnet_max             =   1.4794083251953E+03
(PID.TID 0000.0001) %MON forcing_qnet_min             =  -8.6755374313549E+02
(PID.TID 0000.0001) %MON forcing_qnet_mean            =  -3.4554255388042E+01
(PID.TID 0000.0001) %MON forcing_qnet_sd              =   1.9431008081045E+02
(PID.TID 0000.0001) %MON forcing_qnet_del2            =   3.2503133713552E+00
(PID.TID 0000.0001) %MON forcing_qsw_max              =   0.0000000000000E+00
(PID.TID 0000.0001) %MON forcing_qsw_min              =  -1.0602803214860E+02
(PID.TID 0000.0001) %MON forcing_qsw_mean             =  -1.8999793503299E+01
(PID.TID 0000.0001) %MON forcing_qsw_sd               =   2.7975522437719E+01
(PID.TID 0000.0001) %MON forcing_qsw_del2             =   1.4308354071006E-01
(PID.TID 0000.0001) %MON forcing_empmr_max            =   4.6955309808254E-03
(PID.TID 0000.0001) %MON forcing_empmr_min            =  -6.7512057721615E-02
(PID.TID 0000.0001) %MON forcing_empmr_mean           =  -2.0596072515816E-04
(PID.TID 0000.0001) %MON forcing_empmr_sd             =   2.9770355174776E-03
(PID.TID 0000.0001) %MON forcing_empmr_del2           =   1.1767343454358E-04
(PID.TID 0000.0001) %MON forcing_fu_max               =   2.6444995963883E-01
(PID.TID 0000.0001) %MON forcing_fu_min               =  -3.3203857531737E-01
(PID.TID 0000.0001) %MON forcing_fu_mean              =  -4.3931831900209E-03
(PID.TID 0000.0001) %MON forcing_fu_sd                =   5.7658954805450E-02
(PID.TID 0000.0001) %MON forcing_fu_del2              =   5.7218496335498E-04
(PID.TID 0000.0001) %MON forcing_fv_max               =   2.7111975394691E-01
(PID.TID 0000.0001) %MON forcing_fv_min               =  -2.5588908773197E-01
(PID.TID 0000.0001) %MON forcing_fv_mean              =  -1.4819080095682E-02
(PID.TID 0000.0001) %MON forcing_fv_sd                =   6.0358342780991E-02
(PID.TID 0000.0001) %MON forcing_fv_del2              =   5.1175143896606E-04
(PID.TID 0000.0001) %MON trAdv_CFL_u_max              =   2.0560330855187E-03
(PID.TID 0000.0001) %MON trAdv_CFL_v_max              =   1.4463717762584E-03
(PID.TID 0000.0001) %MON trAdv_CFL_w_max              =   1.1806352424684E-03
(PID.TID 0000.0001) %MON advcfl_uvel_max              =   2.0490851272084E-03
(PID.TID 0000.0001) %MON advcfl_vvel_max              =   1.4356028232219E-03
(PID.TID 0000.0001) %MON advcfl_wvel_max              =   2.3482454859692E-03
(PID.TID 0000.0001) %MON advcfl_W_hf_max              =   1.3037400078045E-03
(PID.TID 0000.0001) %MON pe_b_mean                    =   4.9924317005175E-04
(PID.TID 0000.0001) %MON ke_max                       =   1.7341680546236E-01
(PID.TID 0000.0001) %MON ke_mean                      =   1.6436013429751E-04
(PID.TID 0000.0001) %MON ke_vol                       =   1.3398146878173E+18
(PID.TID 0000.0001) %MON vort_r_min                   =  -2.2862408231382E-06
(PID.TID 0000.0001) %MON vort_r_max                   =   2.7755977764611E-06
(PID.TID 0000.0001) %MON vort_a_mean                  =  -2.0549865324846E-05
(PID.TID 0000.0001) %MON vort_a_sd                    =   7.5259670245431E-05
(PID.TID 0000.0001) %MON vort_p_mean                  =  -2.4783237979998E-05
(PID.TID 0000.0001) %MON vort_p_sd                    =   1.2811922172795E-04
(PID.TID 0000.0001) %MON surfExpan_theta_mean         =  -4.9236752871078E-06
(PID.TID 0000.0001) %MON surfExpan_salt_mean          =   1.0164267835834E-06
(PID.TID 0000.0001) // =======================================================
(PID.TID 0000.0001) // End MONITOR dynamic field statistics
(PID.TID 0000.0001) // =======================================================
(PID.TID 0000.0001) // =======================================================
(PID.TID 0000.0001) // Begin MONITOR SEAICE statistics
(PID.TID 0000.0001) // =======================================================
(PID.TID 0000.0001) %MON seaice_tsnumber              =                 72084
(PID.TID 0000.0001) %MON seaice_time_sec              =   6.4875600000000E+07
(PID.TID 0000.0001) %MON seaice_uice_max              =   4.1130737592153E-01
(PID.TID 0000.0001) %MON seaice_uice_min              =  -4.3940649662347E-01
(PID.TID 0000.0001) %MON seaice_uice_mean             =  -5.8295502404243E-03
(PID.TID 0000.0001) %MON seaice_uice_sd               =   5.9004630356147E-02
(PID.TID 0000.0001) %MON seaice_uice_del2             =   8.4618785196149E-04
(PID.TID 0000.0001) %MON seaice_vice_max              =   2.1846882730256E-01
(PID.TID 0000.0001) %MON seaice_vice_min              =  -3.4326136628157E-01
(PID.TID 0000.0001) %MON seaice_vice_mean             =  -1.4163982777476E-02
(PID.TID 0000.0001) %MON seaice_vice_sd               =   6.2241923426050E-02
(PID.TID 0000.0001) %MON seaice_vice_del2             =   8.3693418934446E-04
(PID.TID 0000.0001) %MON seaice_area_max              =   1.0000000000000E+00
(PID.TID 0000.0001) %MON seaice_area_min              =   0.0000000000000E+00
(PID.TID 0000.0001) %MON seaice_area_mean             =   6.8905929642642E-02
(PID.TID 0000.0001) %MON seaice_area_sd               =   2.3694694699315E-01
(PID.TID 0000.0001) %MON seaice_area_del2             =   1.7291943395621E-03
(PID.TID 0000.0001) %MON seaice_heff_max              =   8.5510773647994E+00
(PID.TID 0000.0001) %MON seaice_heff_min              =   0.0000000000000E+00
(PID.TID 0000.0001) %MON seaice_heff_mean             =   2.0588393193324E-01
(PID.TID 0000.0001) %MON seaice_heff_sd               =   9.8016851877849E-01
(PID.TID 0000.0001) %MON seaice_heff_del2             =   6.2300272139914E-03
(PID.TID 0000.0001) %MON seaice_hsnow_max             =   2.0321027996567E+00
(PID.TID 0000.0001) %MON seaice_hsnow_min             =   0.0000000000000E+00
(PID.TID 0000.0001) %MON seaice_hsnow_mean            =   2.2701975984098E-02
(PID.TID 0000.0001) %MON seaice_hsnow_sd              =   1.1931447404019E-01
(PID.TID 0000.0001) %MON seaice_hsnow_del2            =   1.4603487941689E-03
(PID.TID 0000.0001) // =======================================================
(PID.TID 0000.0001) // End MONITOR SEAICE statistics
(PID.TID 0000.0001) // =======================================================
 Compute Stats, Diag. #    211  SIarea    vol(   0 ): 1.456E+15  Parms: SM      M1      
 Compute Stats, Diag. #    214  SIheff    vol(   0 ): 1.456E+15  Parms: SM      M1      
 Compute Stats, Diag. #    216  SIhsnow   vol(   0 ): 1.456E+15  Parms: SM      M1      
 Compute Stats, Diag. #     83  sIceLoad  vol(   0 ): 1.456E+15  Parms: SM      U1      
 Compute Stats, Diag. #    220  SIuice    vol(   0 ): 1.383E+15  Parms: UU      M1      
 Compute Stats, Diag. #    221  SIvice    vol(   0 ): 1.391E+15  Parms: VV      M1      
 Compute Stats, Diag. #    222  SItaux    vol(   0 ): 1.383E+15  Parms: UU      U1      
 Compute Stats, Diag. #    223  SItauy    vol(   0 ): 1.391E+15  Parms: VV      U1      
 SEAICE_LSR: Residual Initial ipass,Uice,Vice=    1  4.67235906E-03  1.83973514E-03
 SEAICE_LSR (ipass=   1) iters,dU,Resid=     6  8.63330318E-05  8.74511154E-05
 SEAICE_LSR (ipass=   1) iters,dV,Resid=     6  1.27444579E-05  1.76949201E-05
 SEAICE_LSR: Residual Initial ipass,Uice,Vice=    2  3.25602901E-03  1.48201748E-03
 SEAICE_LSR (ipass=   2) iters,dU,Resid=     6  5.43810614E-05  5.37676337E-05
 SEAICE_LSR (ipass=   2) iters,dV,Resid=     6  1.45880443E-05  1.65687532E-05
 cg2d: Sum(rhs),rhsMax =  -8.07488718259936E+01  3.62348650001454E+01
(PID.TID 0000.0001)      cg2d_init_res =   1.94209413402300E-01
(PID.TID 0000.0001)      cg2d_iters(min,last) =      -1      10
(PID.TID 0000.0001)      cg2d_last_res =   3.87498058544318E-08
(PID.TID 0000.0001) // =======================================================
(PID.TID 0000.0001) // Begin MONITOR dynamic field statistics
(PID.TID 0000.0001) // =======================================================
(PID.TID 0000.0001) %MON time_tsnumber                =                 72085
(PID.TID 0000.0001) %MON time_secondsf                =   6.4876500000000E+07
(PID.TID 0000.0001) %MON dynstat_eta_max              =   1.0898140023512E+00
(PID.TID 0000.0001) %MON dynstat_eta_min              =  -1.5566179791663E+00
(PID.TID 0000.0001) %MON dynstat_eta_mean             =   3.3998854444135E-02
(PID.TID 0000.0001) %MON dynstat_eta_sd               =   6.1115255749573E-01
(PID.TID 0000.0001) %MON dynstat_eta_del2             =   1.3337678026066E-03
(PID.TID 0000.0001) %MON dynstat_uvel_max             =   4.2290283515100E-01
(PID.TID 0000.0001) %MON dynstat_uvel_min             =  -7.1222350889324E-01
(PID.TID 0000.0001) %MON dynstat_uvel_mean            =  -4.4839224637867E-04
(PID.TID 0000.0001) %MON dynstat_uvel_sd              =   1.2927761586739E-02
(PID.TID 0000.0001) %MON dynstat_uvel_del2            =   8.4969608723751E-05
(PID.TID 0000.0001) %MON dynstat_vvel_max             =   3.3047671348732E-01
(PID.TID 0000.0001) %MON dynstat_vvel_min             =  -4.3536504402634E-01
(PID.TID 0000.0001) %MON dynstat_vvel_mean            =   1.8222482222530E-04
(PID.TID 0000.0001) %MON dynstat_vvel_sd              =   1.3723475669594E-02
(PID.TID 0000.0001) %MON dynstat_vvel_del2            =   8.8676816313710E-05
(PID.TID 0000.0001) %MON dynstat_wvel_max             =   1.0448056225334E-04
(PID.TID 0000.0001) %MON dynstat_wvel_min             =  -1.9030671496271E-04
(PID.TID 0000.0001) %MON dynstat_wvel_mean            =  -5.5296336451896E-08
(PID.TID 0000.0001) %MON dynstat_wvel_sd              =   7.6115509998034E-06
(PID.TID 0000.0001) %MON dynstat_wvel_del2            =   6.6747929420574E-08
(PID.TID 0000.0001) %MON dynstat_theta_max            =   3.0920578365270E+01
(PID.TID 0000.0001) %MON dynstat_theta_min            =  -3.0154135893941E+00
(PID.TID 0000.0001) %MON dynstat_theta_mean           =   3.9092075993876E+00
(PID.TID 0000.0001) %MON dynstat_theta_sd             =   4.5716619460775E+00
(PID.TID 0000.0001) %MON dynstat_theta_del2           =   2.6386427796682E-03
(PID.TID 0000.0001) %MON dynstat_salt_max             =   4.1346683945036E+01
(PID.TID 0000.0001) %MON dynstat_salt_min             =   1.8519233685015E+01
(PID.TID 0000.0001) %MON dynstat_salt_mean            =   3.4771896879439E+01
(PID.TID 0000.0001) %MON dynstat_salt_sd              =   5.3226720612531E-01
(PID.TID 0000.0001) %MON dynstat_salt_del2            =   1.1344208507288E-03
(PID.TID 0000.0001) %MON dynstat_sst_max              =   3.0920578365270E+01
(PID.TID 0000.0001) %MON dynstat_sst_min              =  -1.9175464895262E+00
(PID.TID 0000.0001) %MON dynstat_sst_mean             =   1.8109333899328E+01
(PID.TID 0000.0001) %MON dynstat_sst_sd               =   9.8141144051935E+00
(PID.TID 0000.0001) %MON dynstat_sst_del2             =   1.4975161976982E-02
(PID.TID 0000.0001) %MON dynstat_sss_max              =   4.1346683945036E+01
(PID.TID 0000.0001) %MON dynstat_sss_min              =   1.8752455947385E+01
(PID.TID 0000.0001) %MON dynstat_sss_mean             =   3.4620236715094E+01
(PID.TID 0000.0001) %MON dynstat_sss_sd               =   1.4904894223458E+00
(PID.TID 0000.0001) %MON dynstat_sss_del2             =   1.2869397623389E-02
(PID.TID 0000.0001) %MON forcing_qnet_max             =   1.4621743164062E+03
(PID.TID 0000.0001) %MON forcing_qnet_min             =  -1.0017943115234E+03
(PID.TID 0000.0001) %MON forcing_qnet_mean            =  -3.6663501076382E+01
(PID.TID 0000.0001) %MON forcing_qnet_sd              =   1.9185189896640E+02
(PID.TID 0000.0001) %MON forcing_qnet_del2            =   3.2355375492284E+00
(PID.TID 0000.0001) %MON forcing_qsw_max              =   0.0000000000000E+00
(PID.TID 0000.0001) %MON forcing_qsw_min              =  -1.0513074995227E+02
(PID.TID 0000.0001) %MON forcing_qsw_mean             =  -1.9255330452009E+01
(PID.TID 0000.0001) %MON forcing_qsw_sd               =   2.8190865554680E+01
(PID.TID 0000.0001) %MON forcing_qsw_del2             =   1.4230320062450E-01
(PID.TID 0000.0001) %MON forcing_empmr_max            =   4.6472148969769E-03
(PID.TID 0000.0001) %MON forcing_empmr_min            =  -6.6817291080952E-02
(PID.TID 0000.0001) %MON forcing_empmr_mean           =  -2.0259857147259E-04
(PID.TID 0000.0001) %MON forcing_empmr_sd             =   2.9468605970865E-03
(PID.TID 0000.0001) %MON forcing_empmr_del2           =   1.1646444835028E-04
(PID.TID 0000.0001) %MON forcing_fu_max               =   2.6146441636815E-01
(PID.TID 0000.0001) %MON forcing_fu_min               =  -3.3440264752757E-01
(PID.TID 0000.0001) %MON forcing_fu_mean              =  -4.5189950513111E-03
(PID.TID 0000.0001) %MON forcing_fu_sd                =   5.7304610213890E-02
(PID.TID 0000.0001) %MON forcing_fu_del2              =   5.6974822262325E-04
(PID.TID 0000.0001) %MON forcing_fv_max               =   2.6980912124464E-01
(PID.TID 0000.0001) %MON forcing_fv_min               =  -2.5625933306860E-01
(PID.TID 0000.0001) %MON forcing_fv_mean              =  -1.4852508306650E-02
(PID.TID 0000.0001) %MON forcing_fv_sd                =   6.0287494491692E-02
(PID.TID 0000.0001) %MON forcing_fv_del2              =   5.1043001280711E-04
(PID.TID 0000.0001) %MON trAdv_CFL_u_max              =   2.0630059353737E-03
(PID.TID 0000.0001) %MON trAdv_CFL_v_max              =   1.4311083033805E-03
(PID.TID 0000.0001) %MON trAdv_CFL_w_max              =   1.2016481849829E-03
(PID.TID 0000.0001) %MON advcfl_uvel_max              =   2.0546508957766E-03
(PID.TID 0000.0001) %MON advcfl_vvel_max              =   1.4207549468716E-03
(PID.TID 0000.0001) %MON advcfl_wvel_max              =   2.3240796897722E-03
(PID.TID 0000.0001) %MON advcfl_W_hf_max              =   1.2919455851013E-03
(PID.TID 0000.0001) %MON pe_b_mean                    =   4.9911626105835E-04
(PID.TID 0000.0001) %MON ke_max                       =   1.7912839783980E-01
(PID.TID 0000.0001) %MON ke_mean                      =   1.6426367118979E-04
(PID.TID 0000.0001) %MON ke_vol                       =   1.3398147529881E+18
(PID.TID 0000.0001) %MON vort_r_min                   =  -2.2924507590476E-06
(PID.TID 0000.0001) %MON vort_r_max                   =   2.7793628990126E-06
(PID.TID 0000.0001) %MON vort_a_mean                  =  -2.0549865324846E-05
(PID.TID 0000.0001) %MON vort_a_sd                    =   7.5259666834305E-05
(PID.TID 0000.0001) %MON vort_p_mean                  =  -2.4783236766843E-05
(PID.TID 0000.0001) %MON vort_p_sd                    =   1.2811922585278E-04
(PID.TID 0000.0001) %MON surfExpan_theta_mean         =  -4.7785224778235E-06
(PID.TID 0000.0001) %MON surfExpan_salt_mean          =   9.9399913654651E-07
(PID.TID 0000.0001) // =======================================================
(PID.TID 0000.0001) // End MONITOR dynamic field statistics
(PID.TID 0000.0001) // =======================================================
(PID.TID 0000.0001) // =======================================================
(PID.TID 0000.0001) // Begin MONITOR SEAICE statistics
(PID.TID 0000.0001) // =======================================================
(PID.TID 0000.0001) %MON seaice_tsnumber              =                 72085
(PID.TID 0000.0001) %MON seaice_time_sec              =   6.4876500000000E+07
(PID.TID 0000.0001) %MON seaice_uice_max              =   4.1121510718244E-01
(PID.TID 0000.0001) %MON seaice_uice_min              =  -4.3221756970531E-01
(PID.TID 0000.0001) %MON seaice_uice_mean             =  -6.0323524111094E-03
(PID.TID 0000.0001) %MON seaice_uice_sd               =   5.8706727521153E-02
(PID.TID 0000.0001) %MON seaice_uice_del2             =   8.4277421975968E-04
(PID.TID 0000.0001) %MON seaice_vice_max              =   2.2922315068892E-01
(PID.TID 0000.0001) %MON seaice_vice_min              =  -3.4468083296329E-01
(PID.TID 0000.0001) %MON seaice_vice_mean             =  -1.4230539820114E-02
(PID.TID 0000.0001) %MON seaice_vice_sd               =   6.2331959144497E-02
(PID.TID 0000.0001) %MON seaice_vice_del2             =   8.3945193327160E-04
(PID.TID 0000.0001) %MON seaice_area_max              =   1.0000000000000E+00
(PID.TID 0000.0001) %MON seaice_area_min              =   0.0000000000000E+00
(PID.TID 0000.0001) %MON seaice_area_mean             =   6.8898860420388E-02
(PID.TID 0000.0001) %MON seaice_area_sd               =   2.3692848247834E-01
(PID.TID 0000.0001) %MON seaice_area_del2             =   1.7286603668212E-03
(PID.TID 0000.0001) %MON seaice_heff_max              =   8.5514151832734E+00
(PID.TID 0000.0001) %MON seaice_heff_min              =   0.0000000000000E+00
(PID.TID 0000.0001) %MON seaice_heff_mean             =   2.0587511763814E-01
(PID.TID 0000.0001) %MON seaice_heff_sd               =   9.8016022592718E-01
(PID.TID 0000.0001) %MON seaice_heff_del2             =   6.2296784853595E-03
(PID.TID 0000.0001) %MON seaice_hsnow_max             =   2.0321112874946E+00
(PID.TID 0000.0001) %MON seaice_hsnow_min             =   0.0000000000000E+00
(PID.TID 0000.0001) %MON seaice_hsnow_mean            =   2.2700806119106E-02
(PID.TID 0000.0001) %MON seaice_hsnow_sd              =   1.1931075483943E-01
(PID.TID 0000.0001) %MON seaice_hsnow_del2            =   1.4602836416231E-03
(PID.TID 0000.0001) // =======================================================
(PID.TID 0000.0001) // End MONITOR SEAICE statistics
(PID.TID 0000.0001) // =======================================================
 Computing Diagnostic #    211  SIarea       Counter:       1   Parms: SM      M1      
 Computing Diagnostic #    214  SIheff       Counter:       1   Parms: SM      M1      
 Computing Diagnostic #    216  SIhsnow      Counter:       1   Parms: SM      M1      
 Computing Diagnostic #     83  sIceLoad     Counter:       1   Parms: SM      U1      
 Computing Diagnostic #    220  SIuice       Counter:       1   Parms: UU      M1      
           Vector  Mate for  SIuice       Diagnostic #    221  SIvice   exists 
 Computing Diagnostic #    221  SIvice       Counter:       1   Parms: VV      M1      
           Vector  Mate for  SIvice       Diagnostic #    220  SIuice   exists 
 Computing Diagnostic #    222  SItaux       Counter:       1   Parms: UU      U1      
           Vector  Mate for  SItaux       Diagnostic #    223  SItauy   exists 
 Computing Diagnostic #    223  SItauy       Counter:       1   Parms: VV      U1      
           Vector  Mate for  SItauy       Diagnostic #    222  SItaux   exists 
 Computing Diagnostic #      1  SDIAG1       Counter:       1   Parms: SM      L1      
 Computing Diagnostic #    282  SIareaN      Counter:       1   Parms: SM      MX      
 Computing Diagnostic #    281  SIheffN      Counter:       1   Parms: SM      MX      
 Computing Diagnostic #    283  SIhsnowN     Counter:       1   Parms: SM      MX      
 SEAICE_LSR: Residual Initial ipass,Uice,Vice=    1  4.56183060E-03  1.77191634E-03
 SEAICE_LSR (ipass=   1) iters,dU,Resid=     8  5.77669191E-05  4.62262981E-05
 SEAICE_LSR (ipass=   1) iters,dV,Resid=     8  9.99098658E-06  7.95478912E-06
 SEAICE_LSR: Residual Initial ipass,Uice,Vice=    2  3.06165762E-03  1.43915893E-03
 SEAICE_LSR (ipass=   2) iters,dU,Resid=     6  6.74265798E-05  5.70670659E-05
 SEAICE_LSR (ipass=   2) iters,dV,Resid=     6  2.28475791E-05  1.62183993E-05
 cg2d: Sum(rhs),rhsMax =  -8.11706487628920E+01  3.62319113934998E+01
(PID.TID 0000.0001)      cg2d_init_res =   1.93571002673149E-01
(PID.TID 0000.0001)      cg2d_iters(min,last) =      -1      10
(PID.TID 0000.0001)      cg2d_last_res =   3.98566041003277E-08
(PID.TID 0000.0001) // =======================================================
(PID.TID 0000.0001) // Begin MONITOR dynamic field statistics
(PID.TID 0000.0001) // =======================================================
(PID.TID 0000.0001) %MON time_tsnumber                =                 72086
(PID.TID 0000.0001) %MON time_secondsf                =   6.4877400000000E+07
(PID.TID 0000.0001) %MON dynstat_eta_max              =   1.0311395305522E+00
(PID.TID 0000.0001) %MON dynstat_eta_min              =  -1.5566448059969E+00
(PID.TID 0000.0001) %MON dynstat_eta_mean             =   3.4173655412254E-02
(PID.TID 0000.0001) %MON dynstat_eta_sd               =   6.1106271549160E-01
(PID.TID 0000.0001) %MON dynstat_eta_del2             =   1.3044814117826E-03
(PID.TID 0000.0001) %MON dynstat_uvel_max             =   4.1846170739792E-01
(PID.TID 0000.0001) %MON dynstat_uvel_min             =  -7.1196387034457E-01
(PID.TID 0000.0001) %MON dynstat_uvel_mean            =  -4.6034231967519E-04
(PID.TID 0000.0001) %MON dynstat_uvel_sd              =   1.2916238805505E-02
(PID.TID 0000.0001) %MON dynstat_uvel_del2            =   8.5124615629714E-05
(PID.TID 0000.0001) %MON dynstat_vvel_max             =   3.3438702665196E-01
(PID.TID 0000.0001) %MON dynstat_vvel_min             =  -4.2449051518914E-01
(PID.TID 0000.0001) %MON dynstat_vvel_mean            =   1.6885189411245E-04
(PID.TID 0000.0001) %MON dynstat_vvel_sd              =   1.3724897368137E-02
(PID.TID 0000.0001) %MON dynstat_vvel_del2            =   8.8468008044957E-05
(PID.TID 0000.0001) %MON dynstat_wvel_max             =   1.0469322782206E-04
(PID.TID 0000.0001) %MON dynstat_wvel_min             =  -1.9040236893929E-04
(PID.TID 0000.0001) %MON dynstat_wvel_mean            =  -5.1944357820490E-08
(PID.TID 0000.0001) %MON dynstat_wvel_sd              =   7.6004741393674E-06
(PID.TID 0000.0001) %MON dynstat_wvel_del2            =   6.6425918215999E-08
(PID.TID 0000.0001) %MON dynstat_theta_max            =   3.0920321019872E+01
(PID.TID 0000.0001) %MON dynstat_theta_min            =  -3.0159973247813E+00
(PID.TID 0000.0001) %MON dynstat_theta_mean           =   3.9092108503630E+00
(PID.TID 0000.0001) %MON dynstat_theta_sd             =   4.5716746485249E+00
(PID.TID 0000.0001) %MON dynstat_theta_del2           =   2.6385268732715E-03
(PID.TID 0000.0001) %MON dynstat_salt_max             =   4.1346663299677E+01
(PID.TID 0000.0001) %MON dynstat_salt_min             =   1.8519243735148E+01
(PID.TID 0000.0001) %MON dynstat_salt_mean            =   3.4771895372335E+01
(PID.TID 0000.0001) %MON dynstat_salt_sd              =   5.3227729320730E-01
(PID.TID 0000.0001) %MON dynstat_salt_del2            =   1.1365275941099E-03
(PID.TID 0000.0001) %MON dynstat_sst_max              =   3.0920321019872E+01
(PID.TID 0000.0001) %MON dynstat_sst_min              =  -1.9174052360913E+00
(PID.TID 0000.0001) %MON dynstat_sst_mean             =   1.8109482797447E+01
(PID.TID 0000.0001) %MON dynstat_sst_sd               =   9.8142725079549E+00
(PID.TID 0000.0001) %MON dynstat_sst_del2             =   1.4973133342448E-02
(PID.TID 0000.0001) %MON dynstat_sss_max              =   4.1346663299677E+01
(PID.TID 0000.0001) %MON dynstat_sss_min              =   1.8752470265914E+01
(PID.TID 0000.0001) %MON dynstat_sss_mean             =   3.4620121480828E+01
(PID.TID 0000.0001) %MON dynstat_sss_sd               =   1.4907414247424E+00
(PID.TID 0000.0001) %MON dynstat_sss_del2             =   1.2898768944941E-02
(PID.TID 0000.0001) %MON forcing_qnet_max             =   1.4460048828125E+03
(PID.TID 0000.0001) %MON forcing_qnet_min             =  -9.6734527587891E+02
(PID.TID 0000.0001) %MON forcing_qnet_mean            =  -3.7198609350797E+01
(PID.TID 0000.0001) %MON forcing_qnet_sd              =   1.9091357026155E+02
(PID.TID 0000.0001) %MON forcing_qnet_del2            =   3.1790090876839E+00
(PID.TID 0000.0001) %MON forcing_qsw_max              =   0.0000000000000E+00
(PID.TID 0000.0001) %MON forcing_qsw_min              =  -1.0537155446413E+02
(PID.TID 0000.0001) %MON forcing_qsw_mean             =  -1.9462000291555E+01
(PID.TID 0000.0001) %MON forcing_qsw_sd               =   2.8399921527444E+01
(PID.TID 0000.0001) %MON forcing_qsw_del2             =   1.4199485635969E-01
(PID.TID 0000.0001) %MON forcing_empmr_max            =   4.5992922969162E-03
(PID.TID 0000.0001) %MON forcing_empmr_min            =  -6.6129244863987E-02
(PID.TID 0000.0001) %MON forcing_empmr_mean           =  -2.0102111333596E-04
(PID.TID 0000.0001) %MON forcing_empmr_sd             =   2.9163448607350E-03
(PID.TID 0000.0001) %MON forcing_empmr_del2           =   1.1523807233928E-04
(PID.TID 0000.0001) %MON forcing_fu_max               =   2.5932910574207E-01
(PID.TID 0000.0001) %MON forcing_fu_min               =  -3.3286045560640E-01
(PID.TID 0000.0001) %MON forcing_fu_mean              =  -4.6324727487810E-03
(PID.TID 0000.0001) %MON forcing_fu_sd                =   5.7057655716688E-02
(PID.TID 0000.0001) %MON forcing_fu_del2              =   5.6801263331652E-04
(PID.TID 0000.0001) %MON forcing_fv_max               =   2.6433433904375E-01
(PID.TID 0000.0001) %MON forcing_fv_min               =  -2.5684771735244E-01
(PID.TID 0000.0001) %MON forcing_fv_mean              =  -1.4896237326050E-02
(PID.TID 0000.0001) %MON forcing_fv_sd                =   6.0113719492073E-02
(PID.TID 0000.0001) %MON forcing_fv_del2              =   5.0843611449173E-04
(PID.TID 0000.0001) %MON trAdv_CFL_u_max              =   2.0637027815324E-03
(PID.TID 0000.0001) %MON trAdv_CFL_v_max              =   1.3942467032769E-03
(PID.TID 0000.0001) %MON trAdv_CFL_w_max              =   1.2339373355298E-03
(PID.TID 0000.0001) %MON advcfl_uvel_max              =   2.0539018800955E-03
(PID.TID 0000.0001) %MON advcfl_vvel_max              =   1.3852673925712E-03
(PID.TID 0000.0001) %MON advcfl_wvel_max              =   2.3001476474430E-03
(PID.TID 0000.0001) %MON advcfl_W_hf_max              =   1.2778591090142E-03
(PID.TID 0000.0001) %MON pe_b_mean                    =   4.9898583127907E-04
(PID.TID 0000.0001) %MON ke_max                       =   1.8400465802879E-01
(PID.TID 0000.0001) %MON ke_mean                      =   1.6414779953278E-04
(PID.TID 0000.0001) %MON ke_vol                       =   1.3398148170950E+18
(PID.TID 0000.0001) %MON vort_r_min                   =  -2.2916150542716E-06
(PID.TID 0000.0001) %MON vort_r_max                   =   2.7732405295127E-06
(PID.TID 0000.0001) %MON vort_a_mean                  =  -2.0549865324846E-05
(PID.TID 0000.0001) %MON vort_a_sd                    =   7.5259663820993E-05
(PID.TID 0000.0001) %MON vort_p_mean                  =  -2.4783235584730E-05
(PID.TID 0000.0001) %MON vort_p_sd                    =   1.2811923060615E-04
(PID.TID 0000.0001) %MON surfExpan_theta_mean         =  -4.6632043041634E-06
(PID.TID 0000.0001) %MON surfExpan_salt_mean          =   9.7215723658022E-07
(PID.TID 0000.0001) // =======================================================
(PID.TID 0000.0001) // End MONITOR dynamic field statistics
(PID.TID 0000.0001) // =======================================================
(PID.TID 0000.0001) // =======================================================
(PID.TID 0000.0001) // Begin MONITOR SEAICE statistics
(PID.TID 0000.0001) // =======================================================
(PID.TID 0000.0001) %MON seaice_tsnumber              =                 72086
(PID.TID 0000.0001) %MON seaice_time_sec              =   6.4877400000000E+07
(PID.TID 0000.0001) %MON seaice_uice_max              =   4.0766484553894E-01
(PID.TID 0000.0001) %MON seaice_uice_min              =  -4.2521081648453E-01
(PID.TID 0000.0001) %MON seaice_uice_mean             =  -6.2298956333072E-03
(PID.TID 0000.0001) %MON seaice_uice_sd               =   5.8397942288224E-02
(PID.TID 0000.0001) %MON seaice_uice_del2             =   8.3943731272153E-04
(PID.TID 0000.0001) %MON seaice_vice_max              =   2.3713676642620E-01
(PID.TID 0000.0001) %MON seaice_vice_min              =  -3.3944377616428E-01
(PID.TID 0000.0001) %MON seaice_vice_mean             =  -1.4304513005341E-02
(PID.TID 0000.0001) %MON seaice_vice_sd               =   6.2398697519565E-02
(PID.TID 0000.0001) %MON seaice_vice_del2             =   8.4024975401295E-04
(PID.TID 0000.0001) %MON seaice_area_max              =   1.0000000000000E+00
(PID.TID 0000.0001) %MON seaice_area_min              =   0.0000000000000E+00
(PID.TID 0000.0001) %MON seaice_area_mean             =   6.8891750008890E-02
(PID.TID 0000.0001) %MON seaice_area_sd               =   2.3690995422383E-01
(PID.TID 0000.0001) %MON seaice_area_del2             =   1.7281369101507E-03
(PID.TID 0000.0001) %MON seaice_heff_max              =   8.5517433278804E+00
(PID.TID 0000.0001) %MON seaice_heff_min              =   0.0000000000000E+00
(PID.TID 0000.0001) %MON seaice_heff_mean             =   2.0586647533498E-01
(PID.TID 0000.0001) %MON seaice_heff_sd               =   9.8015239976211E-01
(PID.TID 0000.0001) %MON seaice_heff_del2             =   6.2293242074903E-03
(PID.TID 0000.0001) %MON seaice_hsnow_max             =   2.0321191960688E+00
(PID.TID 0000.0001) %MON seaice_hsnow_min             =   0.0000000000000E+00
(PID.TID 0000.0001) %MON seaice_hsnow_mean            =   2.2699706133849E-02
(PID.TID 0000.0001) %MON seaice_hsnow_sd              =   1.1930712587006E-01
(PID.TID 0000.0001) %MON seaice_hsnow_del2            =   1.4602151727177E-03
(PID.TID 0000.0001) // =======================================================
(PID.TID 0000.0001) // End MONITOR SEAICE statistics
(PID.TID 0000.0001) // =======================================================
 SEAICE_LSR: Residual Initial ipass,Uice,Vice=    1  4.36863424E-03  1.74138157E-03
 SEAICE_LSR (ipass=   1) iters,dU,Resid=     8  6.55257764E-05  4.90354706E-05
 SEAICE_LSR (ipass=   1) iters,dV,Resid=     8  1.43343910E-05  7.29232910E-06
 SEAICE_LSR: Residual Initial ipass,Uice,Vice=    2  2.86202440E-03  1.41206275E-03
 SEAICE_LSR (ipass=   2) iters,dU,Resid=     6  7.75207519E-05  6.07392257E-05
 SEAICE_LSR (ipass=   2) iters,dV,Resid=     6  2.93806066E-05  1.53620482E-05
 cg2d: Sum(rhs),rhsMax =  -8.15872677633103E+01  3.62298423512968E+01
(PID.TID 0000.0001)      cg2d_init_res =   1.92162962096979E-01
(PID.TID 0000.0001)      cg2d_iters(min,last) =      -1      10
(PID.TID 0000.0001)      cg2d_last_res =   3.97354331581862E-08
(PID.TID 0000.0001) // =======================================================
(PID.TID 0000.0001) // Begin MONITOR dynamic field statistics
(PID.TID 0000.0001) // =======================================================
(PID.TID 0000.0001) %MON time_tsnumber                =                 72087
(PID.TID 0000.0001) %MON time_secondsf                =   6.4878300000000E+07
(PID.TID 0000.0001) %MON dynstat_eta_max              =   9.8329751334076E-01
(PID.TID 0000.0001) %MON dynstat_eta_min              =  -1.5569943362508E+00
(PID.TID 0000.0001) %MON dynstat_eta_mean             =   3.4347094659805E-02
(PID.TID 0000.0001) %MON dynstat_eta_sd               =   6.1096872742001E-01
(PID.TID 0000.0001) %MON dynstat_eta_del2             =   1.2834633589161E-03
(PID.TID 0000.0001) %MON dynstat_uvel_max             =   4.1110830635595E-01
(PID.TID 0000.0001) %MON dynstat_uvel_min             =  -7.0946088356443E-01
(PID.TID 0000.0001) %MON dynstat_uvel_mean            =  -4.7148097640325E-04
(PID.TID 0000.0001) %MON dynstat_uvel_sd              =   1.2905639457121E-02
(PID.TID 0000.0001) %MON dynstat_uvel_del2            =   8.5272581733657E-05
(PID.TID 0000.0001) %MON dynstat_vvel_max             =   3.3412452830796E-01
(PID.TID 0000.0001) %MON dynstat_vvel_min             =  -4.0766718410391E-01
(PID.TID 0000.0001) %MON dynstat_vvel_mean            =   1.5743046609029E-04
(PID.TID 0000.0001) %MON dynstat_vvel_sd              =   1.3723943581642E-02
(PID.TID 0000.0001) %MON dynstat_vvel_del2            =   8.8098168778256E-05
(PID.TID 0000.0001) %MON dynstat_wvel_max             =   1.0492058465950E-04
(PID.TID 0000.0001) %MON dynstat_wvel_min             =  -1.9050919516337E-04
(PID.TID 0000.0001) %MON dynstat_wvel_mean            =  -4.9452325821224E-08
(PID.TID 0000.0001) %MON dynstat_wvel_sd              =   7.5915810707005E-06
(PID.TID 0000.0001) %MON dynstat_wvel_del2            =   6.6103276519575E-08
(PID.TID 0000.0001) %MON dynstat_theta_max            =   3.0920054974980E+01
(PID.TID 0000.0001) %MON dynstat_theta_min            =  -3.0165926133065E+00
(PID.TID 0000.0001) %MON dynstat_theta_mean           =   3.9092141231782E+00
(PID.TID 0000.0001) %MON dynstat_theta_sd             =   4.5716874994897E+00
(PID.TID 0000.0001) %MON dynstat_theta_del2           =   2.6384087008556E-03
(PID.TID 0000.0001) %MON dynstat_salt_max             =   4.1346649212295E+01
(PID.TID 0000.0001) %MON dynstat_salt_min             =   1.8519253795147E+01
(PID.TID 0000.0001) %MON dynstat_salt_mean            =   3.4771893882394E+01
(PID.TID 0000.0001) %MON dynstat_salt_sd              =   5.3228722732465E-01
(PID.TID 0000.0001) %MON dynstat_salt_del2            =   1.1385864172139E-03
(PID.TID 0000.0001) %MON dynstat_sst_max              =   3.0920054974980E+01
(PID.TID 0000.0001) %MON dynstat_sst_min              =  -1.9172622051912E+00
(PID.TID 0000.0001) %MON dynstat_sst_mean             =   1.8109634675376E+01
(PID.TID 0000.0001) %MON dynstat_sst_sd               =   9.8144325738906E+00
(PID.TID 0000.0001) %MON dynstat_sst_del2             =   1.4971055326412E-02
(PID.TID 0000.0001) %MON dynstat_sss_max              =   4.1346649212295E+01
(PID.TID 0000.0001) %MON dynstat_sss_min              =   1.8752484477396E+01
(PID.TID 0000.0001) %MON dynstat_sss_mean             =   3.4620007694052E+01
(PID.TID 0000.0001) %MON dynstat_sss_sd               =   1.4909888733784E+00
(PID.TID 0000.0001) %MON dynstat_sss_del2             =   1.2927463106858E-02
(PID.TID 0000.0001) %MON forcing_qnet_max             =   1.4300273437500E+03
(PID.TID 0000.0001) %MON forcing_qnet_min             =  -9.3363604736328E+02
(PID.TID 0000.0001) %MON forcing_qnet_mean            =  -3.7685763426923E+01
(PID.TID 0000.0001) %MON forcing_qnet_sd              =   1.9094609784349E+02
(PID.TID 0000.0001) %MON forcing_qnet_del2            =   3.1737044128806E+00
(PID.TID 0000.0001) %MON forcing_qsw_max              =   0.0000000000000E+00
(PID.TID 0000.0001) %MON forcing_qsw_min              =  -1.0546482858257E+02
(PID.TID 0000.0001) %MON forcing_qsw_mean             =  -1.9622510692813E+01
(PID.TID 0000.0001) %MON forcing_qsw_sd               =   2.8578371904732E+01
(PID.TID 0000.0001) %MON forcing_qsw_del2             =   1.4143871758330E-01
(PID.TID 0000.0001) %MON forcing_empmr_max            =   4.5519596897066E-03
(PID.TID 0000.0001) %MON forcing_empmr_min            =  -6.5448746085167E-02
(PID.TID 0000.0001) %MON forcing_empmr_mean           =  -1.9945513468453E-04
(PID.TID 0000.0001) %MON forcing_empmr_sd             =   2.8861847465503E-03
(PID.TID 0000.0001) %MON forcing_empmr_del2           =   1.1402636876306E-04
(PID.TID 0000.0001) %MON forcing_fu_max               =   2.5151675076015E-01
(PID.TID 0000.0001) %MON forcing_fu_min               =  -3.3317491811209E-01
(PID.TID 0000.0001) %MON forcing_fu_mean              =  -4.7601623257722E-03
(PID.TID 0000.0001) %MON forcing_fu_sd                =   5.6753355612882E-02
(PID.TID 0000.0001) %MON forcing_fu_del2              =   5.6530772630862E-04
(PID.TID 0000.0001) %MON forcing_fv_max               =   2.5864804718884E-01
(PID.TID 0000.0001) %MON forcing_fv_min               =  -2.5731384390801E-01
(PID.TID 0000.0001) %MON forcing_fv_mean              =  -1.4967730240349E-02
(PID.TID 0000.0001) %MON forcing_fv_sd                =   5.9848445818472E-02
(PID.TID 0000.0001) %MON forcing_fv_del2              =   5.0624379199538E-04
(PID.TID 0000.0001) %MON trAdv_CFL_u_max              =   2.0579450061234E-03
(PID.TID 0000.0001) %MON trAdv_CFL_v_max              =   1.3372711904501E-03
(PID.TID 0000.0001) %MON trAdv_CFL_w_max              =   1.2578277419066E-03
(PID.TID 0000.0001) %MON advcfl_uvel_max              =   2.0466811636130E-03
(PID.TID 0000.0001) %MON advcfl_vvel_max              =   1.3303667265895E-03
(PID.TID 0000.0001) %MON advcfl_wvel_max              =   2.2764781247015E-03
(PID.TID 0000.0001) %MON advcfl_W_hf_max              =   1.2617281830154E-03
(PID.TID 0000.0001) %MON pe_b_mean                    =   4.9884863087510E-04
(PID.TID 0000.0001) %MON ke_max                       =   1.8795562323565E-01
(PID.TID 0000.0001) %MON ke_mean                      =   1.6401297508588E-04
(PID.TID 0000.0001) %MON ke_vol                       =   1.3398148807027E+18
(PID.TID 0000.0001) %MON vort_r_min                   =  -2.3004560125848E-06
(PID.TID 0000.0001) %MON vort_r_max                   =   2.7572948368456E-06
(PID.TID 0000.0001) %MON vort_a_mean                  =  -2.0549865324846E-05
(PID.TID 0000.0001) %MON vort_a_sd                    =   7.5259661227540E-05
(PID.TID 0000.0001) %MON vort_p_mean                  =  -2.4783234422106E-05
(PID.TID 0000.0001) %MON vort_p_sd                    =   1.2811923563657E-04
(PID.TID 0000.0001) %MON surfExpan_theta_mean         =  -4.5521790162156E-06
(PID.TID 0000.0001) %MON surfExpan_salt_mean          =   9.5009740036239E-07
(PID.TID 0000.0001) // =======================================================
(PID.TID 0000.0001) // End MONITOR dynamic field statistics
(PID.TID 0000.0001) // =======================================================
(PID.TID 0000.0001) // =======================================================
(PID.TID 0000.0001) // Begin MONITOR SEAICE statistics
(PID.TID 0000.0001) // =======================================================
(PID.TID 0000.0001) %MON seaice_tsnumber              =                 72087
(PID.TID 0000.0001) %MON seaice_time_sec              =   6.4878300000000E+07
(PID.TID 0000.0001) %MON seaice_uice_max              =   4.0087562383855E-01
(PID.TID 0000.0001) %MON seaice_uice_min              =  -4.1886410384526E-01
(PID.TID 0000.0001) %MON seaice_uice_mean             =  -6.4193718493154E-03
(PID.TID 0000.0001) %MON seaice_uice_sd               =   5.8103775756798E-02
(PID.TID 0000.0001) %MON seaice_uice_del2             =   8.3722294125185E-04
(PID.TID 0000.0001) %MON seaice_vice_max              =   2.4164210755681E-01
(PID.TID 0000.0001) %MON seaice_vice_min              =  -3.3468405448644E-01
(PID.TID 0000.0001) %MON seaice_vice_mean             =  -1.4373754113330E-02
(PID.TID 0000.0001) %MON seaice_vice_sd               =   6.2436936172042E-02
(PID.TID 0000.0001) %MON seaice_vice_del2             =   8.3906116093480E-04
(PID.TID 0000.0001) %MON seaice_area_max              =   1.0000000000000E+00
(PID.TID 0000.0001) %MON seaice_area_min              =   0.0000000000000E+00
(PID.TID 0000.0001) %MON seaice_area_mean             =   6.8884605254089E-02
(PID.TID 0000.0001) %MON seaice_area_sd               =   2.3689131798268E-01
(PID.TID 0000.0001) %MON seaice_area_del2             =   1.7276106893978E-03
(PID.TID 0000.0001) %MON seaice_heff_max              =   8.5520633362613E+00
(PID.TID 0000.0001) %MON seaice_heff_min              =   0.0000000000000E+00
(PID.TID 0000.0001) %MON seaice_heff_mean             =   2.0585774067233E-01
(PID.TID 0000.0001) %MON seaice_heff_sd               =   9.8014416693131E-01
(PID.TID 0000.0001) %MON seaice_heff_del2             =   6.2289753357097E-03
(PID.TID 0000.0001) %MON seaice_hsnow_max             =   2.0321247453579E+00
(PID.TID 0000.0001) %MON seaice_hsnow_min             =   0.0000000000000E+00
(PID.TID 0000.0001) %MON seaice_hsnow_mean            =   2.2698673653152E-02
(PID.TID 0000.0001) %MON seaice_hsnow_sd              =   1.1930355158680E-01
(PID.TID 0000.0001) %MON seaice_hsnow_del2            =   1.4601437911056E-03
(PID.TID 0000.0001) // =======================================================
(PID.TID 0000.0001) // End MONITOR SEAICE statistics
(PID.TID 0000.0001) // =======================================================
 SEAICE_LSR: Residual Initial ipass,Uice,Vice=    1  4.14996436E-03  1.69507603E-03
 SEAICE_LSR (ipass=   1) iters,dU,Resid=     8  7.12840059E-05  5.03176476E-05
 SEAICE_LSR (ipass=   1) iters,dV,Resid=     8  1.32569270E-05  6.32459471E-06
 SEAICE_LSR: Residual Initial ipass,Uice,Vice=    2  2.67952947E-03  1.36806861E-03
 SEAICE_LSR (ipass=   2) iters,dU,Resid=     6  8.55076988E-05  6.25334390E-05
 SEAICE_LSR (ipass=   2) iters,dV,Resid=     6  2.47469440E-05  1.39749957E-05
 cg2d: Sum(rhs),rhsMax =  -8.19947079473618E+01  3.62299570468005E+01
(PID.TID 0000.0001)      cg2d_init_res =   1.90033260472604E-01
(PID.TID 0000.0001)      cg2d_iters(min,last) =      -1      10
(PID.TID 0000.0001)      cg2d_last_res =   3.91696656937794E-08
(PID.TID 0000.0001) // =======================================================
(PID.TID 0000.0001) // Begin MONITOR dynamic field statistics
(PID.TID 0000.0001) // =======================================================
(PID.TID 0000.0001) %MON time_tsnumber                =                 72088
(PID.TID 0000.0001) %MON time_secondsf                =   6.4879200000000E+07
(PID.TID 0000.0001) %MON dynstat_eta_max              =   9.8138068286426E-01
(PID.TID 0000.0001) %MON dynstat_eta_min              =  -1.5574572000104E+00
(PID.TID 0000.0001) %MON dynstat_eta_mean             =   3.4518730537076E-02
(PID.TID 0000.0001) %MON dynstat_eta_sd               =   6.1086798717648E-01
(PID.TID 0000.0001) %MON dynstat_eta_del2             =   1.2706641756631E-03
(PID.TID 0000.0001) %MON dynstat_uvel_max             =   4.0119894640238E-01
(PID.TID 0000.0001) %MON dynstat_uvel_min             =  -7.0467501650659E-01
(PID.TID 0000.0001) %MON dynstat_uvel_mean            =  -4.8176535898995E-04
(PID.TID 0000.0001) %MON dynstat_uvel_sd              =   1.2895864461189E-02
(PID.TID 0000.0001) %MON dynstat_uvel_del2            =   8.5401969152621E-05
(PID.TID 0000.0001) %MON dynstat_vvel_max             =   3.2983875716487E-01
(PID.TID 0000.0001) %MON dynstat_vvel_min             =  -3.8535236257486E-01
(PID.TID 0000.0001) %MON dynstat_vvel_mean            =   1.4809467130808E-04
(PID.TID 0000.0001) %MON dynstat_vvel_sd              =   1.3720990824183E-02
(PID.TID 0000.0001) %MON dynstat_vvel_del2            =   8.7607818541593E-05
(PID.TID 0000.0001) %MON dynstat_wvel_max             =   1.0515415828306E-04
(PID.TID 0000.0001) %MON dynstat_wvel_min             =  -1.9062815323799E-04
(PID.TID 0000.0001) %MON dynstat_wvel_mean            =  -4.7340704693423E-08
(PID.TID 0000.0001) %MON dynstat_wvel_sd              =   7.5855157038498E-06
(PID.TID 0000.0001) %MON dynstat_wvel_del2            =   6.5786341542706E-08
(PID.TID 0000.0001) %MON dynstat_theta_max            =   3.0919781317385E+01
(PID.TID 0000.0001) %MON dynstat_theta_min            =  -3.0171998183506E+00
(PID.TID 0000.0001) %MON dynstat_theta_mean           =   3.9092174031776E+00
(PID.TID 0000.0001) %MON dynstat_theta_sd             =   4.5717004581130E+00
(PID.TID 0000.0001) %MON dynstat_theta_del2           =   2.6382891822469E-03
(PID.TID 0000.0001) %MON dynstat_salt_max             =   4.1346642998824E+01
(PID.TID 0000.0001) %MON dynstat_salt_min             =   1.8519263865020E+01
(PID.TID 0000.0001) %MON dynstat_salt_mean            =   3.4771892417726E+01
(PID.TID 0000.0001) %MON dynstat_salt_sd              =   5.3229701071744E-01
(PID.TID 0000.0001) %MON dynstat_salt_del2            =   1.1405984464137E-03
(PID.TID 0000.0001) %MON dynstat_sst_max              =   3.0919781317385E+01
(PID.TID 0000.0001) %MON dynstat_sst_min              =  -1.9171182081963E+00
(PID.TID 0000.0001) %MON dynstat_sst_mean             =   1.8109788266766E+01
(PID.TID 0000.0001) %MON dynstat_sst_sd               =   9.8145950589503E+00
(PID.TID 0000.0001) %MON dynstat_sst_del2             =   1.4968948143524E-02
(PID.TID 0000.0001) %MON dynstat_sss_max              =   4.1346642998824E+01
(PID.TID 0000.0001) %MON dynstat_sss_min              =   1.8752498436281E+01
(PID.TID 0000.0001) %MON dynstat_sss_mean             =   3.4619895880524E+01
(PID.TID 0000.0001) %MON dynstat_sss_sd               =   1.4912319499420E+00
(PID.TID 0000.0001) %MON dynstat_sss_del2             =   1.2955498353677E-02
(PID.TID 0000.0001) %MON forcing_qnet_max             =   1.4142395019531E+03
(PID.TID 0000.0001) %MON forcing_qnet_min             =  -9.0142456054688E+02
(PID.TID 0000.0001) %MON forcing_qnet_mean            =  -3.7966123759398E+01
(PID.TID 0000.0001) %MON forcing_qnet_sd              =   1.9073039261940E+02
(PID.TID 0000.0001) %MON forcing_qnet_del2            =   3.1064443083676E+00
(PID.TID 0000.0001) %MON forcing_qsw_max              =   0.0000000000000E+00
(PID.TID 0000.0001) %MON forcing_qsw_min              =  -1.0579715648003E+02
(PID.TID 0000.0001) %MON forcing_qsw_mean             =  -1.9729289637893E+01
(PID.TID 0000.0001) %MON forcing_qsw_sd               =   2.8728401854446E+01
(PID.TID 0000.0001) %MON forcing_qsw_del2             =   1.4064065459341E-01
(PID.TID 0000.0001) %MON forcing_empmr_max            =   4.5050214976072E-03
(PID.TID 0000.0001) %MON forcing_empmr_min            =  -6.4774960279465E-02
(PID.TID 0000.0001) %MON forcing_empmr_mean           =  -1.9738125886085E-04
(PID.TID 0000.0001) %MON forcing_empmr_sd             =   2.8562293341800E-03
(PID.TID 0000.0001) %MON forcing_empmr_del2           =   1.1282319654211E-04
(PID.TID 0000.0001) %MON forcing_fu_max               =   2.4846364069529E-01
(PID.TID 0000.0001) %MON forcing_fu_min               =  -3.3253612827423E-01
(PID.TID 0000.0001) %MON forcing_fu_mean              =  -4.8543529505356E-03
(PID.TID 0000.0001) %MON forcing_fu_sd                =   5.6263306048980E-02
(PID.TID 0000.0001) %MON forcing_fu_del2              =   5.6038338126779E-04
(PID.TID 0000.0001) %MON forcing_fv_max               =   2.5375529556914E-01
(PID.TID 0000.0001) %MON forcing_fv_min               =  -2.5797367999934E-01
(PID.TID 0000.0001) %MON forcing_fv_mean              =  -1.4989172540870E-02
(PID.TID 0000.0001) %MON forcing_fv_sd                =   5.9658534754904E-02
(PID.TID 0000.0001) %MON forcing_fv_del2              =   5.0391441211813E-04
(PID.TID 0000.0001) %MON trAdv_CFL_u_max              =   2.0455947864231E-03
(PID.TID 0000.0001) %MON trAdv_CFL_v_max              =   1.2619451774563E-03
(PID.TID 0000.0001) %MON trAdv_CFL_w_max              =   1.2738784102348E-03
(PID.TID 0000.0001) %MON advcfl_uvel_max              =   2.0328747026991E-03
(PID.TID 0000.0001) %MON advcfl_vvel_max              =   1.2575453241573E-03
(PID.TID 0000.0001) %MON advcfl_wvel_max              =   2.2530420966770E-03
(PID.TID 0000.0001) %MON advcfl_W_hf_max              =   1.2738784102348E-03
(PID.TID 0000.0001) %MON pe_b_mean                    =   4.9870037884611E-04
(PID.TID 0000.0001) %MON ke_max                       =   1.9090423214027E-01
(PID.TID 0000.0001) %MON ke_mean                      =   1.6386270878478E-04
(PID.TID 0000.0001) %MON ke_vol                       =   1.3398149438150E+18
(PID.TID 0000.0001) %MON vort_r_min                   =  -2.3380834249089E-06
(PID.TID 0000.0001) %MON vort_r_max                   =   2.7316679695275E-06
(PID.TID 0000.0001) %MON vort_a_mean                  =  -2.0549865324846E-05
(PID.TID 0000.0001) %MON vort_a_sd                    =   7.5259659068786E-05
(PID.TID 0000.0001) %MON vort_p_mean                  =  -2.4783233278098E-05
(PID.TID 0000.0001) %MON vort_p_sd                    =   1.2811924066928E-04
(PID.TID 0000.0001) %MON surfExpan_theta_mean         =  -4.4368734023711E-06
(PID.TID 0000.0001) %MON surfExpan_salt_mean          =   9.2805661376672E-07
(PID.TID 0000.0001) // =======================================================
(PID.TID 0000.0001) // End MONITOR dynamic field statistics
(PID.TID 0000.0001) // =======================================================
(PID.TID 0000.0001) // =======================================================
(PID.TID 0000.0001) // Begin MONITOR SEAICE statistics
(PID.TID 0000.0001) // =======================================================
(PID.TID 0000.0001) %MON seaice_tsnumber              =                 72088
(PID.TID 0000.0001) %MON seaice_time_sec              =   6.4879200000000E+07
(PID.TID 0000.0001) %MON seaice_uice_max              =   3.9116371830482E-01
(PID.TID 0000.0001) %MON seaice_uice_min              =  -4.1298911870734E-01
(PID.TID 0000.0001) %MON seaice_uice_mean             =  -6.6125146771444E-03
(PID.TID 0000.0001) %MON seaice_uice_sd               =   5.7828002164117E-02
(PID.TID 0000.0001) %MON seaice_uice_del2             =   8.3618632950742E-04
(PID.TID 0000.0001) %MON seaice_vice_max              =   2.4224319680382E-01
(PID.TID 0000.0001) %MON seaice_vice_min              =  -3.3645376538879E-01
(PID.TID 0000.0001) %MON seaice_vice_mean             =  -1.4460094611099E-02
(PID.TID 0000.0001) %MON seaice_vice_sd               =   6.2450084896832E-02
(PID.TID 0000.0001) %MON seaice_vice_del2             =   8.3653877606153E-04
(PID.TID 0000.0001) %MON seaice_area_max              =   1.0000000000000E+00
(PID.TID 0000.0001) %MON seaice_area_min              =   0.0000000000000E+00
(PID.TID 0000.0001) %MON seaice_area_mean             =   6.8877431210388E-02
(PID.TID 0000.0001) %MON seaice_area_sd               =   2.3687254341381E-01
(PID.TID 0000.0001) %MON seaice_area_del2             =   1.7270740758782E-03
(PID.TID 0000.0001) %MON seaice_heff_max              =   8.5523748878335E+00
(PID.TID 0000.0001) %MON seaice_heff_min              =   0.0000000000000E+00
(PID.TID 0000.0001) %MON seaice_heff_mean             =   2.0584892162828E-01
(PID.TID 0000.0001) %MON seaice_heff_sd               =   9.8013552500570E-01
(PID.TID 0000.0001) %MON seaice_heff_del2             =   6.2286262419313E-03
(PID.TID 0000.0001) %MON seaice_hsnow_max             =   2.0321301429872E+00
(PID.TID 0000.0001) %MON seaice_hsnow_min             =   0.0000000000000E+00
(PID.TID 0000.0001) %MON seaice_hsnow_mean            =   2.2697688883474E-02
(PID.TID 0000.0001) %MON seaice_hsnow_sd              =   1.1930000768127E-01
(PID.TID 0000.0001) %MON seaice_hsnow_del2            =   1.4600673712693E-03
(PID.TID 0000.0001) // =======================================================
(PID.TID 0000.0001) // End MONITOR SEAICE statistics
(PID.TID 0000.0001) // =======================================================
 Compute Stats, Diag. #    211  SIarea    vol(   0 ): 1.456E+15  Parms: SM      M1      
 Compute Stats, Diag. #    214  SIheff    vol(   0 ): 1.456E+15  Parms: SM      M1      
 Compute Stats, Diag. #    216  SIhsnow   vol(   0 ): 1.456E+15  Parms: SM      M1      
 Compute Stats, Diag. #     83  sIceLoad  vol(   0 ): 1.456E+15  Parms: SM      U1      
 Compute Stats, Diag. #    220  SIuice    vol(   0 ): 1.383E+15  Parms: UU      M1      
 Compute Stats, Diag. #    221  SIvice    vol(   0 ): 1.391E+15  Parms: VV      M1      
 Compute Stats, Diag. #    222  SItaux    vol(   0 ): 1.383E+15  Parms: UU      U1      
 Compute Stats, Diag. #    223  SItauy    vol(   0 ): 1.391E+15  Parms: VV      U1      
 SEAICE_LSR: Residual Initial ipass,Uice,Vice=    1  3.91772103E-03  1.63750719E-03
 SEAICE_LSR (ipass=   1) iters,dU,Resid=     8  7.51038174E-05  5.10636268E-05
 SEAICE_LSR (ipass=   1) iters,dV,Resid=     8  7.51831698E-06  5.25791309E-06
 SEAICE_LSR: Residual Initial ipass,Uice,Vice=    2  2.53793713E-03  1.31293338E-03
 SEAICE_LSR (ipass=   2) iters,dU,Resid=     6  9.10118279E-05  6.46583200E-05
 SEAICE_LSR (ipass=   2) iters,dV,Resid=     6  1.94998097E-05  1.26308712E-05
 cg2d: Sum(rhs),rhsMax =  -8.23914595306723E+01  3.62332759337520E+01
(PID.TID 0000.0001)      cg2d_init_res =   1.87226337620801E-01
(PID.TID 0000.0001)      cg2d_iters(min,last) =      -1      10
(PID.TID 0000.0001)      cg2d_last_res =   3.93755434016985E-08
(PID.TID 0000.0001) // =======================================================
(PID.TID 0000.0001) // Begin MONITOR dynamic field statistics
(PID.TID 0000.0001) // =======================================================
(PID.TID 0000.0001) %MON time_tsnumber                =                 72089
(PID.TID 0000.0001) %MON time_secondsf                =   6.4880100000000E+07
(PID.TID 0000.0001) %MON dynstat_eta_max              =   9.7895306283800E-01
(PID.TID 0000.0001) %MON dynstat_eta_min              =  -1.5580449017167E+00
(PID.TID 0000.0001) %MON dynstat_eta_mean             =   3.4688935342864E-02
(PID.TID 0000.0001) %MON dynstat_eta_sd               =   6.1075771657566E-01
(PID.TID 0000.0001) %MON dynstat_eta_del2             =   1.2653220137005E-03
(PID.TID 0000.0001) %MON dynstat_uvel_max             =   3.8914364320383E-01
(PID.TID 0000.0001) %MON dynstat_uvel_min             =  -6.9759773902217E-01
(PID.TID 0000.0001) %MON dynstat_uvel_mean            =  -4.9120826145913E-04
(PID.TID 0000.0001) %MON dynstat_uvel_sd              =   1.2887032323681E-02
(PID.TID 0000.0001) %MON dynstat_uvel_del2            =   8.5504958282546E-05
(PID.TID 0000.0001) %MON dynstat_vvel_max             =   3.2173477470104E-01
(PID.TID 0000.0001) %MON dynstat_vvel_min             =  -3.5807535769279E-01
(PID.TID 0000.0001) %MON dynstat_vvel_mean            =   1.4091785021761E-04
(PID.TID 0000.0001) %MON dynstat_vvel_sd              =   1.3716425964559E-02
(PID.TID 0000.0001) %MON dynstat_vvel_del2            =   8.7045812019459E-05
(PID.TID 0000.0001) %MON dynstat_wvel_max             =   1.0538864064587E-04
(PID.TID 0000.0001) %MON dynstat_wvel_min             =  -1.9076013912008E-04
(PID.TID 0000.0001) %MON dynstat_wvel_mean            =  -4.6141049582776E-08
(PID.TID 0000.0001) %MON dynstat_wvel_sd              =   7.5825027335540E-06
(PID.TID 0000.0001) %MON dynstat_wvel_del2            =   6.5482999660378E-08
(PID.TID 0000.0001) %MON dynstat_theta_max            =   3.0919498758531E+01
(PID.TID 0000.0001) %MON dynstat_theta_min            =  -3.0178196108224E+00
(PID.TID 0000.0001) %MON dynstat_theta_mean           =   3.9092207919460E+00
(PID.TID 0000.0001) %MON dynstat_theta_sd             =   4.5717139684168E+00
(PID.TID 0000.0001) %MON dynstat_theta_del2           =   2.6381647209982E-03
(PID.TID 0000.0001) %MON dynstat_salt_max             =   4.1346646068255E+01
(PID.TID 0000.0001) %MON dynstat_salt_min             =   1.8519273944505E+01
(PID.TID 0000.0001) %MON dynstat_salt_mean            =   3.4771890969886E+01
(PID.TID 0000.0001) %MON dynstat_salt_sd              =   5.3230665176474E-01
(PID.TID 0000.0001) %MON dynstat_salt_del2            =   1.1425636409605E-03
(PID.TID 0000.0001) %MON dynstat_sst_max              =   3.0919498758531E+01
(PID.TID 0000.0001) %MON dynstat_sst_min              =  -1.9169751252648E+00
(PID.TID 0000.0001) %MON dynstat_sst_mean             =   1.8109951772094E+01
(PID.TID 0000.0001) %MON dynstat_sst_sd               =   9.8147634693331E+00
(PID.TID 0000.0001) %MON dynstat_sst_del2             =   1.4966712638235E-02
(PID.TID 0000.0001) %MON dynstat_sss_max              =   4.1346646068255E+01
(PID.TID 0000.0001) %MON dynstat_sss_min              =   1.8752512145628E+01
(PID.TID 0000.0001) %MON dynstat_sss_mean             =   3.4619785660333E+01
(PID.TID 0000.0001) %MON dynstat_sss_sd               =   1.4914708615368E+00
(PID.TID 0000.0001) %MON dynstat_sss_del2             =   1.2982872448313E-02
(PID.TID 0000.0001) %MON forcing_qnet_max             =   1.3986386718750E+03
(PID.TID 0000.0001) %MON forcing_qnet_min             =  -8.7021179199219E+02
(PID.TID 0000.0001) %MON forcing_qnet_mean            =  -3.9871300912148E+01
(PID.TID 0000.0001) %MON forcing_qnet_sd              =   1.9337225087168E+02
(PID.TID 0000.0001) %MON forcing_qnet_del2            =   3.1766449045902E+00
(PID.TID 0000.0001) %MON forcing_qsw_max              =   0.0000000000000E+00
(PID.TID 0000.0001) %MON forcing_qsw_min              =  -1.0636512035039E+02
(PID.TID 0000.0001) %MON forcing_qsw_mean             =  -2.0198621964161E+01
(PID.TID 0000.0001) %MON forcing_qsw_sd               =   2.9263937548205E+01
(PID.TID 0000.0001) %MON forcing_qsw_del2             =   1.3750831345956E-01
(PID.TID 0000.0001) %MON forcing_empmr_max            =   4.4585750438273E-03
(PID.TID 0000.0001) %MON forcing_empmr_min            =  -6.4107887446880E-02
(PID.TID 0000.0001) %MON forcing_empmr_mean           =  -1.9573552665671E-04
(PID.TID 0000.0001) %MON forcing_empmr_sd             =   2.8270453121175E-03
(PID.TID 0000.0001) %MON forcing_empmr_del2           =   1.1164732100915E-04
(PID.TID 0000.0001) %MON forcing_fu_max               =   2.4629614031955E-01
(PID.TID 0000.0001) %MON forcing_fu_min               =  -3.3089493483054E-01
(PID.TID 0000.0001) %MON forcing_fu_mean              =  -4.9515730830595E-03
(PID.TID 0000.0001) %MON forcing_fu_sd                =   5.6049145606728E-02
(PID.TID 0000.0001) %MON forcing_fu_del2              =   5.5964144227444E-04
(PID.TID 0000.0001) %MON forcing_fv_max               =   2.5287061136678E-01
(PID.TID 0000.0001) %MON forcing_fv_min               =  -2.5870704812601E-01
(PID.TID 0000.0001) %MON forcing_fv_mean              =  -1.5001516941883E-02
(PID.TID 0000.0001) %MON forcing_fv_sd                =   5.9475951171862E-02
(PID.TID 0000.0001) %MON forcing_fv_del2              =   5.0247157349229E-04
(PID.TID 0000.0001) %MON trAdv_CFL_u_max              =   2.0266019010442E-03
(PID.TID 0000.0001) %MON trAdv_CFL_v_max              =   1.1702665990830E-03
(PID.TID 0000.0001) %MON trAdv_CFL_w_max              =   1.2827883638238E-03
(PID.TID 0000.0001) %MON advcfl_uvel_max              =   2.0124578892390E-03
(PID.TID 0000.0001) %MON advcfl_vvel_max              =   1.1746739343761E-03
(PID.TID 0000.0001) %MON advcfl_wvel_max              =   2.2298395633698E-03
(PID.TID 0000.0001) %MON advcfl_W_hf_max              =   1.2827883638238E-03
(PID.TID 0000.0001) %MON pe_b_mean                    =   4.9853659175991E-04
(PID.TID 0000.0001) %MON ke_max                       =   1.9279672300342E-01
(PID.TID 0000.0001) %MON ke_mean                      =   1.6370325847721E-04
(PID.TID 0000.0001) %MON ke_vol                       =   1.3398150062710E+18
(PID.TID 0000.0001) %MON vort_r_min                   =  -2.3793714670702E-06
(PID.TID 0000.0001) %MON vort_r_max                   =   2.6966189767161E-06
(PID.TID 0000.0001) %MON vort_a_mean                  =  -2.0549865324846E-05
(PID.TID 0000.0001) %MON vort_a_sd                    =   7.5259657354684E-05
(PID.TID 0000.0001) %MON vort_p_mean                  =  -2.4783232153917E-05
(PID.TID 0000.0001) %MON vort_p_sd                    =   1.2811924545320E-04
(PID.TID 0000.0001) %MON surfExpan_theta_mean         =  -4.3362281033210E-06
(PID.TID 0000.0001) %MON surfExpan_salt_mean          =   9.0673221992546E-07
(PID.TID 0000.0001) // =======================================================
(PID.TID 0000.0001) // End MONITOR dynamic field statistics
(PID.TID 0000.0001) // =======================================================
(PID.TID 0000.0001) // =======================================================
(PID.TID 0000.0001) // Begin MONITOR SEAICE statistics
(PID.TID 0000.0001) // =======================================================
(PID.TID 0000.0001) %MON seaice_tsnumber              =                 72089
(PID.TID 0000.0001) %MON seaice_time_sec              =   6.4880100000000E+07
(PID.TID 0000.0001) %MON seaice_uice_max              =   3.7889996598781E-01
(PID.TID 0000.0001) %MON seaice_uice_min              =  -4.0699118277924E-01
(PID.TID 0000.0001) %MON seaice_uice_mean             =  -6.7783827318522E-03
(PID.TID 0000.0001) %MON seaice_uice_sd               =   5.7560467978735E-02
(PID.TID 0000.0001) %MON seaice_uice_del2             =   8.3655222801109E-04
(PID.TID 0000.0001) %MON seaice_vice_max              =   2.3905913657119E-01
(PID.TID 0000.0001) %MON seaice_vice_min              =  -3.3821346297051E-01
(PID.TID 0000.0001) %MON seaice_vice_mean             =  -1.4549244947055E-02
(PID.TID 0000.0001) %MON seaice_vice_sd               =   6.2440553225392E-02
(PID.TID 0000.0001) %MON seaice_vice_del2             =   8.3320079485459E-04
(PID.TID 0000.0001) %MON seaice_area_max              =   1.0000000000000E+00
(PID.TID 0000.0001) %MON seaice_area_min              =   0.0000000000000E+00
(PID.TID 0000.0001) %MON seaice_area_mean             =   6.8870230995261E-02
(PID.TID 0000.0001) %MON seaice_area_sd               =   2.3685366370087E-01
(PID.TID 0000.0001) %MON seaice_area_del2             =   1.7265309303601E-03
(PID.TID 0000.0001) %MON seaice_heff_max              =   8.5526784121305E+00
(PID.TID 0000.0001) %MON seaice_heff_min              =   0.0000000000000E+00
(PID.TID 0000.0001) %MON seaice_heff_mean             =   2.0584001809869E-01
(PID.TID 0000.0001) %MON seaice_heff_sd               =   9.8012649501733E-01
(PID.TID 0000.0001) %MON seaice_heff_del2             =   6.2282799388506E-03
(PID.TID 0000.0001) %MON seaice_hsnow_max             =   2.0321335007647E+00
(PID.TID 0000.0001) %MON seaice_hsnow_min             =   0.0000000000000E+00
(PID.TID 0000.0001) %MON seaice_hsnow_mean            =   2.2696765544988E-02
(PID.TID 0000.0001) %MON seaice_hsnow_sd              =   1.1929652077800E-01
(PID.TID 0000.0001) %MON seaice_hsnow_del2            =   1.4599878810047E-03
(PID.TID 0000.0001) // =======================================================
(PID.TID 0000.0001) // End MONITOR SEAICE statistics
(PID.TID 0000.0001) // =======================================================
 Computing Diagnostic #    211  SIarea       Counter:       1   Parms: SM      M1      
 Computing Diagnostic #    214  SIheff       Counter:       1   Parms: SM      M1      
 Computing Diagnostic #    216  SIhsnow      Counter:       1   Parms: SM      M1      
 Computing Diagnostic #     83  sIceLoad     Counter:       1   Parms: SM      U1      
 Computing Diagnostic #    220  SIuice       Counter:       1   Parms: UU      M1      
           Vector  Mate for  SIuice       Diagnostic #    221  SIvice   exists 
 Computing Diagnostic #    221  SIvice       Counter:       1   Parms: VV      M1      
           Vector  Mate for  SIvice       Diagnostic #    220  SIuice   exists 
 Computing Diagnostic #    222  SItaux       Counter:       1   Parms: UU      U1      
           Vector  Mate for  SItaux       Diagnostic #    223  SItauy   exists 
 Computing Diagnostic #    223  SItauy       Counter:       1   Parms: VV      U1      
           Vector  Mate for  SItauy       Diagnostic #    222  SItaux   exists 
 Computing Diagnostic #      1  SDIAG1       Counter:       1   Parms: SM      L1      
 Computing Diagnostic #    282  SIareaN      Counter:       1   Parms: SM      MX      
 Computing Diagnostic #    281  SIheffN      Counter:       1   Parms: SM      MX      
 Computing Diagnostic #    283  SIhsnowN     Counter:       1   Parms: SM      MX      
 SEAICE_LSR: Residual Initial ipass,Uice,Vice=    1  3.78635599E-03  1.65509720E-03
 SEAICE_LSR (ipass=   1) iters,dU,Resid=     8  7.21868862E-05  5.50217295E-05
 SEAICE_LSR (ipass=   1) iters,dV,Resid=     8  8.53912578E-06  4.60713147E-06
 SEAICE_LSR: Residual Initial ipass,Uice,Vice=    2  2.47627963E-03  1.32795958E-03
 SEAICE_LSR (ipass=   2) iters,dU,Resid=     6  8.81172460E-05  7.13954149E-05
 SEAICE_LSR (ipass=   2) iters,dV,Resid=     6  2.08915472E-05  1.18697740E-05
 cg2d: Sum(rhs),rhsMax =  -8.27720208971092E+01  3.62404549069829E+01
(PID.TID 0000.0001)      cg2d_init_res =   1.83849468500258E-01
(PID.TID 0000.0001)      cg2d_iters(min,last) =      -1      10
(PID.TID 0000.0001)      cg2d_last_res =   3.85978925225905E-08
(PID.TID 0000.0001) // =======================================================
(PID.TID 0000.0001) // Begin MONITOR dynamic field statistics
(PID.TID 0000.0001) // =======================================================
(PID.TID 0000.0001) %MON time_tsnumber                =                 72090
(PID.TID 0000.0001) %MON time_secondsf                =   6.4881000000000E+07
(PID.TID 0000.0001) %MON dynstat_eta_max              =   9.7609210851572E-01
(PID.TID 0000.0001) %MON dynstat_eta_min              =  -1.5587691009385E+00
(PID.TID 0000.0001) %MON dynstat_eta_mean             =   3.4856066256352E-02
(PID.TID 0000.0001) %MON dynstat_eta_sd               =   6.1063313815792E-01
(PID.TID 0000.0001) %MON dynstat_eta_del2             =   1.2661565067044E-03
(PID.TID 0000.0001) %MON dynstat_uvel_max             =   3.7539350281317E-01
(PID.TID 0000.0001) %MON dynstat_uvel_min             =  -6.8823818212734E-01
(PID.TID 0000.0001) %MON dynstat_uvel_mean            =  -4.9985441687393E-04
(PID.TID 0000.0001) %MON dynstat_uvel_sd              =   1.2879161620337E-02
(PID.TID 0000.0001) %MON dynstat_uvel_del2            =   8.5575072960755E-05
(PID.TID 0000.0001) %MON dynstat_vvel_max             =   3.1006927157758E-01
(PID.TID 0000.0001) %MON dynstat_vvel_min             =  -3.4163303280478E-01
(PID.TID 0000.0001) %MON dynstat_vvel_mean            =   1.3594714821334E-04
(PID.TID 0000.0001) %MON dynstat_vvel_sd              =   1.3710704963315E-02
(PID.TID 0000.0001) %MON dynstat_vvel_del2            =   8.6463515305253E-05
(PID.TID 0000.0001) %MON dynstat_wvel_max             =   1.0562929653490E-04
(PID.TID 0000.0001) %MON dynstat_wvel_min             =  -1.9089363916454E-04
(PID.TID 0000.0001) %MON dynstat_wvel_mean            =  -4.4058556045816E-08
(PID.TID 0000.0001) %MON dynstat_wvel_sd              =   7.5820209297655E-06
(PID.TID 0000.0001) %MON dynstat_wvel_del2            =   6.5193480744796E-08
(PID.TID 0000.0001) %MON dynstat_theta_max            =   3.0919208408252E+01
(PID.TID 0000.0001) %MON dynstat_theta_min            =  -3.0184525795356E+00
(PID.TID 0000.0001) %MON dynstat_theta_mean           =   3.9092242320022E+00
(PID.TID 0000.0001) %MON dynstat_theta_sd             =   4.5717278376489E+00
(PID.TID 0000.0001) %MON dynstat_theta_del2           =   2.6380353070773E-03
(PID.TID 0000.0001) %MON dynstat_salt_max             =   4.1346659661117E+01
(PID.TID 0000.0001) %MON dynstat_salt_min             =   1.8519284033154E+01
(PID.TID 0000.0001) %MON dynstat_salt_mean            =   3.4771889558922E+01
(PID.TID 0000.0001) %MON dynstat_salt_sd              =   5.3231613428323E-01
(PID.TID 0000.0001) %MON dynstat_salt_del2            =   1.1444818554844E-03
(PID.TID 0000.0001) %MON dynstat_sst_max              =   3.0919208408252E+01
(PID.TID 0000.0001) %MON dynstat_sst_min              =  -1.9168348153762E+00
(PID.TID 0000.0001) %MON dynstat_sst_mean             =   1.8110120496803E+01
(PID.TID 0000.0001) %MON dynstat_sst_sd               =   9.8149364623064E+00
(PID.TID 0000.0001) %MON dynstat_sst_del2             =   1.4964433823057E-02
(PID.TID 0000.0001) %MON dynstat_sss_max              =   4.1346659661117E+01
(PID.TID 0000.0001) %MON dynstat_sss_min              =   1.8752525759076E+01
(PID.TID 0000.0001) %MON dynstat_sss_mean             =   3.4619677752154E+01
(PID.TID 0000.0001) %MON dynstat_sss_sd               =   1.4917054542234E+00
(PID.TID 0000.0001) %MON dynstat_sss_del2             =   1.3009603091695E-02
(PID.TID 0000.0001) %MON forcing_qnet_max             =   1.3832231445312E+03
(PID.TID 0000.0001) %MON forcing_qnet_min             =  -8.3999920654297E+02
(PID.TID 0000.0001) %MON forcing_qnet_mean            =  -4.1130552848459E+01
(PID.TID 0000.0001) %MON forcing_qnet_sd              =   1.9398677398784E+02
(PID.TID 0000.0001) %MON forcing_qnet_del2            =   3.0301589773653E+00
(PID.TID 0000.0001) %MON forcing_qsw_max              =   0.0000000000000E+00
(PID.TID 0000.0001) %MON forcing_qsw_min              =  -1.0661213811178E+02
(PID.TID 0000.0001) %MON forcing_qsw_mean             =  -2.0420311427366E+01
(PID.TID 0000.0001) %MON forcing_qsw_sd               =   2.9486176147832E+01
(PID.TID 0000.0001) %MON forcing_qsw_del2             =   1.3702500525267E-01
(PID.TID 0000.0001) %MON forcing_empmr_max            =   4.4127185828984E-03
(PID.TID 0000.0001) %MON forcing_empmr_min            =  -6.3448362052441E-02
(PID.TID 0000.0001) %MON forcing_empmr_mean           =  -1.9220055051160E-04
(PID.TID 0000.0001) %MON forcing_empmr_sd             =   2.7976207069289E-03
(PID.TID 0000.0001) %MON forcing_empmr_del2           =   1.1044386086735E-04
(PID.TID 0000.0001) %MON forcing_fu_max               =   2.4636551430798E-01
(PID.TID 0000.0001) %MON forcing_fu_min               =  -3.3176548496992E-01
(PID.TID 0000.0001) %MON forcing_fu_mean              =  -5.0917893200262E-03
(PID.TID 0000.0001) %MON forcing_fu_sd                =   5.5944089507767E-02
(PID.TID 0000.0001) %MON forcing_fu_del2              =   5.5876559247126E-04
(PID.TID 0000.0001) %MON forcing_fv_max               =   2.4845808717267E-01
(PID.TID 0000.0001) %MON forcing_fv_min               =  -2.5918769495629E-01
(PID.TID 0000.0001) %MON forcing_fv_mean              =  -1.4990667858663E-02
(PID.TID 0000.0001) %MON forcing_fv_sd                =   5.9374802373180E-02
(PID.TID 0000.0001) %MON forcing_fv_del2              =   5.0125046803400E-04
(PID.TID 0000.0001) %MON trAdv_CFL_u_max              =   2.0009665985526E-03
(PID.TID 0000.0001) %MON trAdv_CFL_v_max              =   1.1619851232594E-03
(PID.TID 0000.0001) %MON trAdv_CFL_w_max              =   1.2853622007081E-03
(PID.TID 0000.0001) %MON advcfl_uvel_max              =   1.9854570647535E-03
(PID.TID 0000.0001) %MON advcfl_vvel_max              =   1.1665372376282E-03
(PID.TID 0000.0001) %MON advcfl_wvel_max              =   2.2068995496501E-03
(PID.TID 0000.0001) %MON advcfl_W_hf_max              =   1.2853622007081E-03
(PID.TID 0000.0001) %MON pe_b_mean                    =   4.9834935079470E-04
(PID.TID 0000.0001) %MON ke_max                       =   1.9359648719048E-01
(PID.TID 0000.0001) %MON ke_mean                      =   1.6354060339994E-04
(PID.TID 0000.0001) %MON ke_vol                       =   1.3398150682063E+18
(PID.TID 0000.0001) %MON vort_r_min                   =  -2.4270911617847E-06
(PID.TID 0000.0001) %MON vort_r_max                   =   2.6524768842486E-06
(PID.TID 0000.0001) %MON vort_a_mean                  =  -2.0549865324846E-05
(PID.TID 0000.0001) %MON vort_a_sd                    =   7.5259656086401E-05
(PID.TID 0000.0001) %MON vort_p_mean                  =  -2.4783231046065E-05
(PID.TID 0000.0001) %MON vort_p_sd                    =   1.2811924973163E-04
(PID.TID 0000.0001) %MON surfExpan_theta_mean         =  -4.1912835952419E-06
(PID.TID 0000.0001) %MON surfExpan_salt_mean          =   8.8494268903821E-07
(PID.TID 0000.0001) // =======================================================
(PID.TID 0000.0001) // End MONITOR dynamic field statistics
(PID.TID 0000.0001) // =======================================================
(PID.TID 0000.0001) // =======================================================
(PID.TID 0000.0001) // Begin MONITOR SEAICE statistics
(PID.TID 0000.0001) // =======================================================
(PID.TID 0000.0001) %MON seaice_tsnumber              =                 72090
(PID.TID 0000.0001) %MON seaice_time_sec              =   6.4881000000000E+07
(PID.TID 0000.0001) %MON seaice_uice_max              =   3.6451173955608E-01
(PID.TID 0000.0001) %MON seaice_uice_min              =  -4.0034275722627E-01
(PID.TID 0000.0001) %MON seaice_uice_mean             =  -6.9432085851602E-03
(PID.TID 0000.0001) %MON seaice_uice_sd               =   5.7321718852253E-02
(PID.TID 0000.0001) %MON seaice_uice_del2             =   8.3770157287921E-04
(PID.TID 0000.0001) %MON seaice_vice_max              =   2.3316298494045E-01
(PID.TID 0000.0001) %MON seaice_vice_min              =  -3.3993666486095E-01
(PID.TID 0000.0001) %MON seaice_vice_mean             =  -1.4635786876788E-02
(PID.TID 0000.0001) %MON seaice_vice_sd               =   6.2407274014303E-02
(PID.TID 0000.0001) %MON seaice_vice_del2             =   8.2928697782343E-04
(PID.TID 0000.0001) %MON seaice_area_max              =   1.0000000000000E+00
(PID.TID 0000.0001) %MON seaice_area_min              =   0.0000000000000E+00
(PID.TID 0000.0001) %MON seaice_area_mean             =   6.8863007942707E-02
(PID.TID 0000.0001) %MON seaice_area_sd               =   2.3683472131637E-01
(PID.TID 0000.0001) %MON seaice_area_del2             =   1.7259908464853E-03
(PID.TID 0000.0001) %MON seaice_heff_max              =   8.5529742182665E+00
(PID.TID 0000.0001) %MON seaice_heff_min              =   0.0000000000000E+00
(PID.TID 0000.0001) %MON seaice_heff_mean             =   2.0583101973176E-01
(PID.TID 0000.0001) %MON seaice_heff_sd               =   9.8011708972737E-01
(PID.TID 0000.0001) %MON seaice_heff_del2             =   6.2279401259824E-03
(PID.TID 0000.0001) %MON seaice_hsnow_max             =   2.0321389336788E+00
(PID.TID 0000.0001) %MON seaice_hsnow_min             =   0.0000000000000E+00
(PID.TID 0000.0001) %MON seaice_hsnow_mean            =   2.2695827065503E-02
(PID.TID 0000.0001) %MON seaice_hsnow_sd              =   1.1929299430425E-01
(PID.TID 0000.0001) %MON seaice_hsnow_del2            =   1.4599083079750E-03
(PID.TID 0000.0001) // =======================================================
(PID.TID 0000.0001) // End MONITOR SEAICE statistics
(PID.TID 0000.0001) // =======================================================
 SEAICE_LSR: Residual Initial ipass,Uice,Vice=    1  3.62059756E-03  1.65349833E-03
 SEAICE_LSR (ipass=   1) iters,dU,Resid=     8  7.46541277E-05  5.68839994E-05
 SEAICE_LSR (ipass=   1) iters,dV,Resid=     8  1.00676019E-05  3.95501451E-06
 SEAICE_LSR: Residual Initial ipass,Uice,Vice=    2  2.41838883E-03  1.30455729E-03
 SEAICE_LSR (ipass=   2) iters,dU,Resid=     6  9.11576579E-05  7.36325404E-05
 SEAICE_LSR (ipass=   2) iters,dV,Resid=     6  2.27553455E-05  1.13311699E-05
 cg2d: Sum(rhs),rhsMax =  -8.31393196019457E+01  3.62516707113014E+01
(PID.TID 0000.0001)      cg2d_init_res =   1.79942540751463E-01
(PID.TID 0000.0001)      cg2d_iters(min,last) =      -1      10
(PID.TID 0000.0001)      cg2d_last_res =   3.77141767947000E-08
(PID.TID 0000.0001) // =======================================================
(PID.TID 0000.0001) // Begin MONITOR dynamic field statistics
(PID.TID 0000.0001) // =======================================================
(PID.TID 0000.0001) %MON time_tsnumber                =                 72091
(PID.TID 0000.0001) %MON time_secondsf                =   6.4881900000000E+07
(PID.TID 0000.0001) %MON dynstat_eta_max              =   9.7277857945855E-01
(PID.TID 0000.0001) %MON dynstat_eta_min              =  -1.5596376874341E+00
(PID.TID 0000.0001) %MON dynstat_eta_mean             =   3.5021574378288E-02
(PID.TID 0000.0001) %MON dynstat_eta_sd               =   6.1049158078186E-01
(PID.TID 0000.0001) %MON dynstat_eta_del2             =   1.2715501507975E-03
(PID.TID 0000.0001) %MON dynstat_uvel_max             =   3.6042734133175E-01
(PID.TID 0000.0001) %MON dynstat_uvel_min             =  -6.7658272272656E-01
(PID.TID 0000.0001) %MON dynstat_uvel_mean            =  -5.0771202312505E-04
(PID.TID 0000.0001) %MON dynstat_uvel_sd              =   1.2871958359810E-02
(PID.TID 0000.0001) %MON dynstat_uvel_del2            =   8.5606981174977E-05
(PID.TID 0000.0001) %MON dynstat_vvel_max             =   2.9514110391264E-01
(PID.TID 0000.0001) %MON dynstat_vvel_min             =  -3.4328847781387E-01
(PID.TID 0000.0001) %MON dynstat_vvel_mean            =   1.3319695371902E-04
(PID.TID 0000.0001) %MON dynstat_vvel_sd              =   1.3704364929037E-02
(PID.TID 0000.0001) %MON dynstat_vvel_del2            =   8.5911542338436E-05
(PID.TID 0000.0001) %MON dynstat_wvel_max             =   1.0586545569741E-04
(PID.TID 0000.0001) %MON dynstat_wvel_min             =  -1.9103685083639E-04
(PID.TID 0000.0001) %MON dynstat_wvel_mean            =  -4.3360978814785E-08
(PID.TID 0000.0001) %MON dynstat_wvel_sd              =   7.5845850721776E-06
(PID.TID 0000.0001) %MON dynstat_wvel_del2            =   6.4924499080692E-08
(PID.TID 0000.0001) %MON dynstat_theta_max            =   3.0918910175183E+01
(PID.TID 0000.0001) %MON dynstat_theta_min            =  -3.0190994222390E+00
(PID.TID 0000.0001) %MON dynstat_theta_mean           =   3.9092277194060E+00
(PID.TID 0000.0001) %MON dynstat_theta_sd             =   4.5717419920054E+00
(PID.TID 0000.0001) %MON dynstat_theta_del2           =   2.6379098687276E-03
(PID.TID 0000.0001) %MON dynstat_salt_max             =   4.1346685229530E+01
(PID.TID 0000.0001) %MON dynstat_salt_min             =   1.8519294130375E+01
(PID.TID 0000.0001) %MON dynstat_salt_mean            =   3.4771888172173E+01
(PID.TID 0000.0001) %MON dynstat_salt_sd              =   5.3232547717004E-01
(PID.TID 0000.0001) %MON dynstat_salt_del2            =   1.1463590463614E-03
(PID.TID 0000.0001) %MON dynstat_sst_max              =   3.0918910175183E+01
(PID.TID 0000.0001) %MON dynstat_sst_min              =  -1.9166989957647E+00
(PID.TID 0000.0001) %MON dynstat_sst_mean             =   1.8110295328798E+01
(PID.TID 0000.0001) %MON dynstat_sst_sd               =   9.8151137615996E+00
(PID.TID 0000.0001) %MON dynstat_sst_del2             =   1.4962162653074E-02
(PID.TID 0000.0001) %MON dynstat_sss_max              =   4.1346685229530E+01
(PID.TID 0000.0001) %MON dynstat_sss_min              =   1.8752539130212E+01
(PID.TID 0000.0001) %MON dynstat_sss_mean             =   3.4619572298208E+01
(PID.TID 0000.0001) %MON dynstat_sss_sd               =   1.4919360338780E+00
(PID.TID 0000.0001) %MON dynstat_sss_del2             =   1.3035739015389E-02
(PID.TID 0000.0001) %MON forcing_qnet_max             =   1.3679901123047E+03
(PID.TID 0000.0001) %MON forcing_qnet_min             =  -8.1103625488281E+02
(PID.TID 0000.0001) %MON forcing_qnet_mean            =  -4.1993561603985E+01
(PID.TID 0000.0001) %MON forcing_qnet_sd              =   1.9602616878393E+02
(PID.TID 0000.0001) %MON forcing_qnet_del2            =   3.0602643267733E+00
(PID.TID 0000.0001) %MON forcing_qsw_max              =   0.0000000000000E+00
(PID.TID 0000.0001) %MON forcing_qsw_min              =  -1.0642993606763E+02
(PID.TID 0000.0001) %MON forcing_qsw_mean             =  -2.0596541060092E+01
(PID.TID 0000.0001) %MON forcing_qsw_sd               =   2.9659680363957E+01
(PID.TID 0000.0001) %MON forcing_qsw_del2             =   1.3635295085749E-01
(PID.TID 0000.0001) %MON forcing_empmr_max            =   4.3672560714185E-03
(PID.TID 0000.0001) %MON forcing_empmr_min            =  -6.2795557081699E-02
(PID.TID 0000.0001) %MON forcing_empmr_mean           =  -1.9033434022554E-04
(PID.TID 0000.0001) %MON forcing_empmr_sd             =   2.7691103854251E-03
(PID.TID 0000.0001) %MON forcing_empmr_del2           =   1.0927748737114E-04
(PID.TID 0000.0001) %MON forcing_fu_max               =   2.4684516900270E-01
(PID.TID 0000.0001) %MON forcing_fu_min               =  -3.1695130524609E-01
(PID.TID 0000.0001) %MON forcing_fu_mean              =  -5.1505778224428E-03
(PID.TID 0000.0001) %MON forcing_fu_sd                =   5.5541386821379E-02
(PID.TID 0000.0001) %MON forcing_fu_del2              =   5.5396406197657E-04
(PID.TID 0000.0001) %MON forcing_fv_max               =   2.4852154286068E-01
(PID.TID 0000.0001) %MON forcing_fv_min               =  -2.5914838299529E-01
(PID.TID 0000.0001) %MON forcing_fv_mean              =  -1.4942614688646E-02
(PID.TID 0000.0001) %MON forcing_fv_sd                =   5.9289841469409E-02
(PID.TID 0000.0001) %MON forcing_fv_del2              =   5.0011803266489E-04
(PID.TID 0000.0001) %MON trAdv_CFL_u_max              =   1.9686220705869E-03
(PID.TID 0000.0001) %MON trAdv_CFL_v_max              =   1.1526195084372E-03
(PID.TID 0000.0001) %MON trAdv_CFL_w_max              =   1.2824913715082E-03
(PID.TID 0000.0001) %MON advcfl_uvel_max              =   1.9518329287913E-03
(PID.TID 0000.0001) %MON advcfl_vvel_max              =   1.1563183446577E-03
(PID.TID 0000.0001) %MON advcfl_wvel_max              =   2.1841932897982E-03
(PID.TID 0000.0001) %MON advcfl_W_hf_max              =   1.2824913715082E-03
(PID.TID 0000.0001) %MON pe_b_mean                    =   4.9813445693456E-04
(PID.TID 0000.0001) %MON ke_max                       =   1.9326305412014E-01
(PID.TID 0000.0001) %MON ke_mean                      =   1.6337804973172E-04
(PID.TID 0000.0001) %MON ke_vol                       =   1.3398151290230E+18
(PID.TID 0000.0001) %MON vort_r_min                   =  -2.4738330156119E-06
(PID.TID 0000.0001) %MON vort_r_max                   =   2.5995624179037E-06
(PID.TID 0000.0001) %MON vort_a_mean                  =  -2.0549865324846E-05
(PID.TID 0000.0001) %MON vort_a_sd                    =   7.5259655245893E-05
(PID.TID 0000.0001) %MON vort_p_mean                  =  -2.4783229965496E-05
(PID.TID 0000.0001) %MON vort_p_sd                    =   1.2811925331046E-04
(PID.TID 0000.0001) %MON surfExpan_theta_mean         =  -4.0820901148990E-06
(PID.TID 0000.0001) %MON surfExpan_salt_mean          =   8.6457744209283E-07
(PID.TID 0000.0001) // =======================================================
(PID.TID 0000.0001) // End MONITOR dynamic field statistics
(PID.TID 0000.0001) // =======================================================
(PID.TID 0000.0001) // =======================================================
(PID.TID 0000.0001) // Begin MONITOR SEAICE statistics
(PID.TID 0000.0001) // =======================================================
(PID.TID 0000.0001) %MON seaice_tsnumber              =                 72091
(PID.TID 0000.0001) %MON seaice_time_sec              =   6.4881900000000E+07
(PID.TID 0000.0001) %MON seaice_uice_max              =   3.4846588794524E-01
(PID.TID 0000.0001) %MON seaice_uice_min              =  -3.9280720607102E-01
(PID.TID 0000.0001) %MON seaice_uice_mean             =  -7.0958141700409E-03
(PID.TID 0000.0001) %MON seaice_uice_sd               =   5.7100870332658E-02
(PID.TID 0000.0001) %MON seaice_uice_del2             =   8.3929750579664E-04
(PID.TID 0000.0001) %MON seaice_vice_max              =   2.5639366733562E-01
(PID.TID 0000.0001) %MON seaice_vice_min              =  -3.4163303279153E-01
(PID.TID 0000.0001) %MON seaice_vice_mean             =  -1.4745014310866E-02
(PID.TID 0000.0001) %MON seaice_vice_sd               =   6.2352355767698E-02
(PID.TID 0000.0001) %MON seaice_vice_del2             =   8.2567979529608E-04
(PID.TID 0000.0001) %MON seaice_area_max              =   1.0000000000000E+00
(PID.TID 0000.0001) %MON seaice_area_min              =   0.0000000000000E+00
(PID.TID 0000.0001) %MON seaice_area_mean             =   6.8855754695969E-02
(PID.TID 0000.0001) %MON seaice_area_sd               =   2.3681569965794E-01
(PID.TID 0000.0001) %MON seaice_area_del2             =   1.7254548736650E-03
(PID.TID 0000.0001) %MON seaice_heff_max              =   8.5532615519973E+00
(PID.TID 0000.0001) %MON seaice_heff_min              =   0.0000000000000E+00
(PID.TID 0000.0001) %MON seaice_heff_mean             =   2.0582190490037E-01
(PID.TID 0000.0001) %MON seaice_heff_sd               =   9.8010721184140E-01
(PID.TID 0000.0001) %MON seaice_heff_del2             =   6.2276053601824E-03
(PID.TID 0000.0001) %MON seaice_hsnow_max             =   2.0321417013588E+00
(PID.TID 0000.0001) %MON seaice_hsnow_min             =   0.0000000000000E+00
(PID.TID 0000.0001) %MON seaice_hsnow_mean            =   2.2694874537831E-02
(PID.TID 0000.0001) %MON seaice_hsnow_sd              =   1.1928942721074E-01
(PID.TID 0000.0001) %MON seaice_hsnow_del2            =   1.4598253764801E-03
(PID.TID 0000.0001) // =======================================================
(PID.TID 0000.0001) // End MONITOR SEAICE statistics
(PID.TID 0000.0001) // =======================================================
 SEAICE_LSR: Residual Initial ipass,Uice,Vice=    1  3.47195936E-03  1.65584187E-03
 SEAICE_LSR (ipass=   1) iters,dU,Resid=     8  7.61437127E-05  5.80330343E-05
 SEAICE_LSR (ipass=   1) iters,dV,Resid=     8  1.10423024E-05  3.57407279E-06
 SEAICE_LSR: Residual Initial ipass,Uice,Vice=    2  2.36682527E-03  1.31141152E-03
 SEAICE_LSR (ipass=   2) iters,dU,Resid=     6  9.23500257E-05  7.51570168E-05
 SEAICE_LSR (ipass=   2) iters,dV,Resid=     6  2.34802932E-05  1.08757250E-05
 cg2d: Sum(rhs),rhsMax =  -8.34940110467795E+01  3.62668607170685E+01
(PID.TID 0000.0001)      cg2d_init_res =   1.75697223515444E-01
(PID.TID 0000.0001)      cg2d_iters(min,last) =      -1      10
(PID.TID 0000.0001)      cg2d_last_res =   3.58551321657361E-08
(PID.TID 0000.0001) // =======================================================
(PID.TID 0000.0001) // Begin MONITOR dynamic field statistics
(PID.TID 0000.0001) // =======================================================
(PID.TID 0000.0001) %MON time_tsnumber                =                 72092
(PID.TID 0000.0001) %MON time_secondsf                =   6.4882800000000E+07
(PID.TID 0000.0001) %MON dynstat_eta_max              =   9.6911176646880E-01
(PID.TID 0000.0001) %MON dynstat_eta_min              =  -1.5606547011561E+00
(PID.TID 0000.0001) %MON dynstat_eta_mean             =   3.5185721645047E-02
(PID.TID 0000.0001) %MON dynstat_eta_sd               =   6.1032993470709E-01
(PID.TID 0000.0001) %MON dynstat_eta_del2             =   1.2797257018036E-03
(PID.TID 0000.0001) %MON dynstat_uvel_max             =   3.4473799395304E-01
(PID.TID 0000.0001) %MON dynstat_uvel_min             =  -6.6270131046886E-01
(PID.TID 0000.0001) %MON dynstat_uvel_mean            =  -5.1484289514169E-04
(PID.TID 0000.0001) %MON dynstat_uvel_sd              =   1.2865481585249E-02
(PID.TID 0000.0001) %MON dynstat_uvel_del2            =   8.5601206434766E-05
(PID.TID 0000.0001) %MON dynstat_vvel_max             =   3.0406126149127E-01
(PID.TID 0000.0001) %MON dynstat_vvel_min             =  -3.4496407533861E-01
(PID.TID 0000.0001) %MON dynstat_vvel_mean            =   1.3261585827558E-04
(PID.TID 0000.0001) %MON dynstat_vvel_sd              =   1.3697859607464E-02
(PID.TID 0000.0001) %MON dynstat_vvel_del2            =   8.5434949218334E-05
(PID.TID 0000.0001) %MON dynstat_wvel_max             =   1.0609742245451E-04
(PID.TID 0000.0001) %MON dynstat_wvel_min             =  -1.9118298638069E-04
(PID.TID 0000.0001) %MON dynstat_wvel_mean            =  -4.3162305238807E-08
(PID.TID 0000.0001) %MON dynstat_wvel_sd              =   7.5894592880834E-06
(PID.TID 0000.0001) %MON dynstat_wvel_del2            =   6.4677999808060E-08
(PID.TID 0000.0001) %MON dynstat_theta_max            =   3.0918603999580E+01
(PID.TID 0000.0001) %MON dynstat_theta_min            =  -3.0197607301434E+00
(PID.TID 0000.0001) %MON dynstat_theta_mean           =   3.9092312452813E+00
(PID.TID 0000.0001) %MON dynstat_theta_sd             =   4.5717564128317E+00
(PID.TID 0000.0001) %MON dynstat_theta_del2           =   2.6377853472220E-03
(PID.TID 0000.0001) %MON dynstat_salt_max             =   4.1346724088876E+01
(PID.TID 0000.0001) %MON dynstat_salt_min             =   1.8519304235506E+01
(PID.TID 0000.0001) %MON dynstat_salt_mean            =   3.4771886807334E+01
(PID.TID 0000.0001) %MON dynstat_salt_sd              =   5.3233467693717E-01
(PID.TID 0000.0001) %MON dynstat_salt_del2            =   1.1481937221822E-03
(PID.TID 0000.0001) %MON dynstat_sst_max              =   3.0918603999580E+01
(PID.TID 0000.0001) %MON dynstat_sst_min              =  -1.9165693023112E+00
(PID.TID 0000.0001) %MON dynstat_sst_mean             =   1.8110475093854E+01
(PID.TID 0000.0001) %MON dynstat_sst_sd               =   9.8152949248505E+00
(PID.TID 0000.0001) %MON dynstat_sst_del2             =   1.4959905733539E-02
(PID.TID 0000.0001) %MON dynstat_sss_max              =   4.1346724088876E+01
(PID.TID 0000.0001) %MON dynstat_sss_min              =   1.8752552381423E+01
(PID.TID 0000.0001) %MON dynstat_sss_mean             =   3.4619468798612E+01
(PID.TID 0000.0001) %MON dynstat_sss_sd               =   1.4921626072063E+00
(PID.TID 0000.0001) %MON dynstat_sss_del2             =   1.3061274246699E-02
(PID.TID 0000.0001) %MON forcing_qnet_max             =   1.3529378662109E+03
(PID.TID 0000.0001) %MON forcing_qnet_min             =  -7.8406608862106E+02
(PID.TID 0000.0001) %MON forcing_qnet_mean            =  -4.2746522506360E+01
(PID.TID 0000.0001) %MON forcing_qnet_sd              =   1.9811252122325E+02
(PID.TID 0000.0001) %MON forcing_qnet_del2            =   3.0325516219101E+00
(PID.TID 0000.0001) %MON forcing_qsw_max              =   0.0000000000000E+00
(PID.TID 0000.0001) %MON forcing_qsw_min              =  -1.0587912163669E+02
(PID.TID 0000.0001) %MON forcing_qsw_mean             =  -2.0727112258899E+01
(PID.TID 0000.0001) %MON forcing_qsw_sd               =   2.9780840723256E+01
(PID.TID 0000.0001) %MON forcing_qsw_del2             =   1.3551476414786E-01
(PID.TID 0000.0001) %MON forcing_empmr_max            =   4.3221870437264E-03
(PID.TID 0000.0001) %MON forcing_empmr_min            =  -6.2149457633495E-02
(PID.TID 0000.0001) %MON forcing_empmr_mean           =  -1.8876935677255E-04
(PID.TID 0000.0001) %MON forcing_empmr_sd             =   2.7409619591325E-03
(PID.TID 0000.0001) %MON forcing_empmr_del2           =   1.0814448130907E-04
(PID.TID 0000.0001) %MON forcing_fu_max               =   2.4706346888935E-01
(PID.TID 0000.0001) %MON forcing_fu_min               =  -3.2193393483684E-01
(PID.TID 0000.0001) %MON forcing_fu_mean              =  -5.2056227011449E-03
(PID.TID 0000.0001) %MON forcing_fu_sd                =   5.5366566876897E-02
(PID.TID 0000.0001) %MON forcing_fu_del2              =   5.5407038948646E-04
(PID.TID 0000.0001) %MON forcing_fv_max               =   2.4252333605008E-01
(PID.TID 0000.0001) %MON forcing_fv_min               =  -2.5850131353617E-01
(PID.TID 0000.0001) %MON forcing_fv_mean              =  -1.4945028164999E-02
(PID.TID 0000.0001) %MON forcing_fv_sd                =   5.9107002750062E-02
(PID.TID 0000.0001) %MON forcing_fv_del2              =   4.9850949076566E-04
(PID.TID 0000.0001) %MON trAdv_CFL_u_max              =   1.9297442544563E-03
(PID.TID 0000.0001) %MON trAdv_CFL_v_max              =   1.1415936048773E-03
(PID.TID 0000.0001) %MON trAdv_CFL_w_max              =   1.2751229398324E-03
(PID.TID 0000.0001) %MON advcfl_uvel_max              =   1.9117872749007E-03
(PID.TID 0000.0001) %MON advcfl_vvel_max              =   1.1439980298403E-03
(PID.TID 0000.0001) %MON advcfl_wvel_max              =   2.1617202655129E-03
(PID.TID 0000.0001) %MON advcfl_W_hf_max              =   1.2751229398324E-03
(PID.TID 0000.0001) %MON pe_b_mean                    =   4.9788689475445E-04
(PID.TID 0000.0001) %MON ke_max                       =   1.9180787510697E-01
(PID.TID 0000.0001) %MON ke_mean                      =   1.6322204916505E-04
(PID.TID 0000.0001) %MON ke_vol                       =   1.3398151892492E+18
(PID.TID 0000.0001) %MON vort_r_min                   =  -2.5193373479800E-06
(PID.TID 0000.0001) %MON vort_r_max                   =   2.5383712043151E-06
(PID.TID 0000.0001) %MON vort_a_mean                  =  -2.0549865324846E-05
(PID.TID 0000.0001) %MON vort_a_sd                    =   7.5259654816019E-05
(PID.TID 0000.0001) %MON vort_p_mean                  =  -2.4783228900821E-05
(PID.TID 0000.0001) %MON vort_p_sd                    =   1.2811925593705E-04
(PID.TID 0000.0001) %MON surfExpan_theta_mean         =  -3.9854661939643E-06
(PID.TID 0000.0001) %MON surfExpan_salt_mean          =   8.4456297849310E-07
(PID.TID 0000.0001) // =======================================================
(PID.TID 0000.0001) // End MONITOR dynamic field statistics
(PID.TID 0000.0001) // =======================================================
(PID.TID 0000.0001) // =======================================================
(PID.TID 0000.0001) // Begin MONITOR SEAICE statistics
(PID.TID 0000.0001) // =======================================================
(PID.TID 0000.0001) %MON seaice_tsnumber              =                 72092
(PID.TID 0000.0001) %MON seaice_time_sec              =   6.4882800000000E+07
(PID.TID 0000.0001) %MON seaice_uice_max              =   3.3126255479233E-01
(PID.TID 0000.0001) %MON seaice_uice_min              =  -3.8444227853227E-01
(PID.TID 0000.0001) %MON seaice_uice_mean             =  -7.2234339690934E-03
(PID.TID 0000.0001) %MON seaice_uice_sd               =   5.6892813706570E-02
(PID.TID 0000.0001) %MON seaice_uice_del2             =   8.4129158202213E-04
(PID.TID 0000.0001) %MON seaice_vice_max              =   2.8334082743068E-01
(PID.TID 0000.0001) %MON seaice_vice_min              =  -3.4328847780094E-01
(PID.TID 0000.0001) %MON seaice_vice_mean             =  -1.4848648002176E-02
(PID.TID 0000.0001) %MON seaice_vice_sd               =   6.2279609641254E-02
(PID.TID 0000.0001) %MON seaice_vice_del2             =   8.2181473222455E-04
(PID.TID 0000.0001) %MON seaice_area_max              =   1.0000000000000E+00
(PID.TID 0000.0001) %MON seaice_area_min              =   0.0000000000000E+00
(PID.TID 0000.0001) %MON seaice_area_mean             =   6.8848487627103E-02
(PID.TID 0000.0001) %MON seaice_area_sd               =   2.3679661765502E-01
(PID.TID 0000.0001) %MON seaice_area_del2             =   1.7249141970284E-03
(PID.TID 0000.0001) %MON seaice_heff_max              =   8.5535419492911E+00
(PID.TID 0000.0001) %MON seaice_heff_min              =   0.0000000000000E+00
(PID.TID 0000.0001) %MON seaice_heff_mean             =   2.0581268504530E-01
(PID.TID 0000.0001) %MON seaice_heff_sd               =   9.8009688487060E-01
(PID.TID 0000.0001) %MON seaice_heff_del2             =   6.2272756644254E-03
(PID.TID 0000.0001) %MON seaice_hsnow_max             =   2.0321465164310E+00
(PID.TID 0000.0001) %MON seaice_hsnow_min             =   0.0000000000000E+00
(PID.TID 0000.0001) %MON seaice_hsnow_mean            =   2.2693884202935E-02
(PID.TID 0000.0001) %MON seaice_hsnow_sd              =   1.1928580670892E-01
(PID.TID 0000.0001) %MON seaice_hsnow_del2            =   1.4597368199430E-03
(PID.TID 0000.0001) // =======================================================
(PID.TID 0000.0001) // End MONITOR SEAICE statistics
(PID.TID 0000.0001) // =======================================================
 Compute Stats, Diag. #    211  SIarea    vol(   0 ): 1.456E+15  Parms: SM      M1      
 Compute Stats, Diag. #    214  SIheff    vol(   0 ): 1.456E+15  Parms: SM      M1      
 Compute Stats, Diag. #    216  SIhsnow   vol(   0 ): 1.456E+15  Parms: SM      M1      
 Compute Stats, Diag. #     83  sIceLoad  vol(   0 ): 1.456E+15  Parms: SM      U1      
 Compute Stats, Diag. #    220  SIuice    vol(   0 ): 1.383E+15  Parms: UU      M1      
 Compute Stats, Diag. #    221  SIvice    vol(   0 ): 1.391E+15  Parms: VV      M1      
 Compute Stats, Diag. #    222  SItaux    vol(   0 ): 1.383E+15  Parms: UU      U1      
 Compute Stats, Diag. #    223  SItauy    vol(   0 ): 1.391E+15  Parms: VV      U1      
 SEAICE_LSR: Residual Initial ipass,Uice,Vice=    1  3.33877524E-03  1.69916678E-03
 SEAICE_LSR (ipass=   1) iters,dU,Resid=     8  7.61765456E-05  5.95032932E-05
 SEAICE_LSR (ipass=   1) iters,dV,Resid=     8  1.14119978E-05  3.22450024E-06
 SEAICE_LSR: Residual Initial ipass,Uice,Vice=    2  2.32208844E-03  1.32685771E-03
 SEAICE_LSR (ipass=   2) iters,dU,Resid=     6  9.14923793E-05  7.59739754E-05
 SEAICE_LSR (ipass=   2) iters,dV,Resid=     6  2.28838546E-05  1.06946481E-05
 cg2d: Sum(rhs),rhsMax =  -8.38373047965627E+01  3.62853684846928E+01
(PID.TID 0000.0001)      cg2d_init_res =   1.71253983662683E-01
(PID.TID 0000.0001)      cg2d_iters(min,last) =      -1      10
(PID.TID 0000.0001)      cg2d_last_res =   3.48133800797230E-08
(PID.TID 0000.0001) // =======================================================
(PID.TID 0000.0001) // Begin MONITOR dynamic field statistics
(PID.TID 0000.0001) // =======================================================
(PID.TID 0000.0001) %MON time_tsnumber                =                 72093
(PID.TID 0000.0001) %MON time_secondsf                =   6.4883700000000E+07
(PID.TID 0000.0001) %MON dynstat_eta_max              =   9.6510329530646E-01
(PID.TID 0000.0001) %MON dynstat_eta_min              =  -1.5618231795069E+00
(PID.TID 0000.0001) %MON dynstat_eta_mean             =   3.5348421029754E-02
(PID.TID 0000.0001) %MON dynstat_eta_sd               =   6.1014576601620E-01
(PID.TID 0000.0001) %MON dynstat_eta_del2             =   1.2889657355771E-03
(PID.TID 0000.0001) %MON dynstat_uvel_max             =   3.2881849474823E-01
(PID.TID 0000.0001) %MON dynstat_uvel_min             =  -6.4668049643645E-01
(PID.TID 0000.0001) %MON dynstat_uvel_mean            =  -5.2132992545399E-04
(PID.TID 0000.0001) %MON dynstat_uvel_sd              =   1.2859734068880E-02
(PID.TID 0000.0001) %MON dynstat_uvel_del2            =   8.5558228561162E-05
(PID.TID 0000.0001) %MON dynstat_vvel_max             =   3.3076519269270E-01
(PID.TID 0000.0001) %MON dynstat_vvel_min             =  -3.4661649959718E-01
(PID.TID 0000.0001) %MON dynstat_vvel_mean            =   1.3412717490921E-04
(PID.TID 0000.0001) %MON dynstat_vvel_sd              =   1.3691528810961E-02
(PID.TID 0000.0001) %MON dynstat_vvel_del2            =   8.5068670328866E-05
(PID.TID 0000.0001) %MON dynstat_wvel_max             =   1.0632316450741E-04
(PID.TID 0000.0001) %MON dynstat_wvel_min             =  -1.9132000442837E-04
(PID.TID 0000.0001) %MON dynstat_wvel_mean            =  -4.3287483400522E-08
(PID.TID 0000.0001) %MON dynstat_wvel_sd              =   7.5965933127012E-06
(PID.TID 0000.0001) %MON dynstat_wvel_del2            =   6.4454457395595E-08
(PID.TID 0000.0001) %MON dynstat_theta_max            =   3.0918289821806E+01
(PID.TID 0000.0001) %MON dynstat_theta_min            =  -3.0204369551116E+00
(PID.TID 0000.0001) %MON dynstat_theta_mean           =   3.9092348978079E+00
(PID.TID 0000.0001) %MON dynstat_theta_sd             =   4.5717716167313E+00
(PID.TID 0000.0001) %MON dynstat_theta_del2           =   2.6376565674635E-03
(PID.TID 0000.0001) %MON dynstat_salt_max             =   4.1346777453946E+01
(PID.TID 0000.0001) %MON dynstat_salt_min             =   1.8519314347871E+01
(PID.TID 0000.0001) %MON dynstat_salt_mean            =   3.4771885461191E+01
(PID.TID 0000.0001) %MON dynstat_salt_sd              =   5.3234375295574E-01
(PID.TID 0000.0001) %MON dynstat_salt_del2            =   1.1499861384882E-03
(PID.TID 0000.0001) %MON dynstat_sst_max              =   3.0918289821806E+01
(PID.TID 0000.0001) %MON dynstat_sst_min              =  -1.9164483141436E+00
(PID.TID 0000.0001) %MON dynstat_sst_mean             =   1.8110666144899E+01
(PID.TID 0000.0001) %MON dynstat_sst_sd               =   9.8154880692664E+00
(PID.TID 0000.0001) %MON dynstat_sst_del2             =   1.4957529837444E-02
(PID.TID 0000.0001) %MON dynstat_sss_max              =   4.1346777453946E+01
(PID.TID 0000.0001) %MON dynstat_sss_min              =   1.8752565397154E+01
(PID.TID 0000.0001) %MON dynstat_sss_mean             =   3.4619366954176E+01
(PID.TID 0000.0001) %MON dynstat_sss_sd               =   1.4923857518007E+00
(PID.TID 0000.0001) %MON dynstat_sss_del2             =   1.3086215019575E-02
(PID.TID 0000.0001) %MON forcing_qnet_max             =   1.3380638427734E+03
(PID.TID 0000.0001) %MON forcing_qnet_min             =  -7.7340893225081E+02
(PID.TID 0000.0001) %MON forcing_qnet_mean            =  -4.4998848765762E+01
(PID.TID 0000.0001) %MON forcing_qnet_sd              =   2.0240533462246E+02
(PID.TID 0000.0001) %MON forcing_qnet_del2            =   3.1035813460724E+00
(PID.TID 0000.0001) %MON forcing_qsw_max              =   0.0000000000000E+00
(PID.TID 0000.0001) %MON forcing_qsw_min              =  -1.0412342283905E+02
(PID.TID 0000.0001) %MON forcing_qsw_mean             =  -2.1186571665579E+01
(PID.TID 0000.0001) %MON forcing_qsw_sd               =   3.0224287307820E+01
(PID.TID 0000.0001) %MON forcing_qsw_del2             =   1.3270438500840E-01
(PID.TID 0000.0001) %MON forcing_empmr_max            =   4.2777084745467E-03
(PID.TID 0000.0001) %MON forcing_empmr_min            =  -6.1509236693382E-02
(PID.TID 0000.0001) %MON forcing_empmr_mean           =  -1.8710429241413E-04
(PID.TID 0000.0001) %MON forcing_empmr_sd             =   2.7132162263411E-03
(PID.TID 0000.0001) %MON forcing_empmr_del2           =   1.0703568552196E-04
(PID.TID 0000.0001) %MON forcing_fu_max               =   2.4678637132489E-01
(PID.TID 0000.0001) %MON forcing_fu_min               =  -3.2872886354581E-01
(PID.TID 0000.0001) %MON forcing_fu_mean              =  -5.3184895241453E-03
(PID.TID 0000.0001) %MON forcing_fu_sd                =   5.5304072780719E-02
(PID.TID 0000.0001) %MON forcing_fu_del2              =   5.5404102053720E-04
(PID.TID 0000.0001) %MON forcing_fv_max               =   2.3565167955301E-01
(PID.TID 0000.0001) %MON forcing_fv_min               =  -2.5740780323993E-01
(PID.TID 0000.0001) %MON forcing_fv_mean              =  -1.4973339006027E-02
(PID.TID 0000.0001) %MON forcing_fv_sd                =   5.8809571438548E-02
(PID.TID 0000.0001) %MON forcing_fv_del2              =   4.9629616626405E-04
(PID.TID 0000.0001) %MON trAdv_CFL_u_max              =   1.8845588823191E-03
(PID.TID 0000.0001) %MON trAdv_CFL_v_max              =   1.2131821115118E-03
(PID.TID 0000.0001) %MON trAdv_CFL_w_max              =   1.2642395308471E-03
(PID.TID 0000.0001) %MON advcfl_uvel_max              =   1.8655697891090E-03
(PID.TID 0000.0001) %MON advcfl_vvel_max              =   1.1712211058216E-03
(PID.TID 0000.0001) %MON advcfl_wvel_max              =   2.1394517110742E-03
(PID.TID 0000.0001) %MON advcfl_W_hf_max              =   1.2642395308471E-03
(PID.TID 0000.0001) %MON pe_b_mean                    =   4.9760272351958E-04
(PID.TID 0000.0001) %MON ke_max                       =   1.8926373862837E-01
(PID.TID 0000.0001) %MON ke_mean                      =   1.6307695405648E-04
(PID.TID 0000.0001) %MON ke_vol                       =   1.3398152489802E+18
(PID.TID 0000.0001) %MON vort_r_min                   =  -2.5633411511663E-06
(PID.TID 0000.0001) %MON vort_r_max                   =   2.4695133717690E-06
(PID.TID 0000.0001) %MON vort_a_mean                  =  -2.0549865324846E-05
(PID.TID 0000.0001) %MON vort_a_sd                    =   7.5259654766784E-05
(PID.TID 0000.0001) %MON vort_p_mean                  =  -2.4783227849070E-05
(PID.TID 0000.0001) %MON vort_p_sd                    =   1.2811925745163E-04
(PID.TID 0000.0001) %MON surfExpan_theta_mean         =  -3.8943688966487E-06
(PID.TID 0000.0001) %MON surfExpan_salt_mean          =   8.2652086939973E-07
(PID.TID 0000.0001) // =======================================================
(PID.TID 0000.0001) // End MONITOR dynamic field statistics
(PID.TID 0000.0001) // =======================================================
(PID.TID 0000.0001) // =======================================================
(PID.TID 0000.0001) // Begin MONITOR SEAICE statistics
(PID.TID 0000.0001) // =======================================================
(PID.TID 0000.0001) %MON seaice_tsnumber              =                 72093
(PID.TID 0000.0001) %MON seaice_time_sec              =   6.4883700000000E+07
(PID.TID 0000.0001) %MON seaice_uice_max              =   3.1339521574187E-01
(PID.TID 0000.0001) %MON seaice_uice_min              =  -3.7554067622324E-01
(PID.TID 0000.0001) %MON seaice_uice_mean             =  -7.3473809619986E-03
(PID.TID 0000.0001) %MON seaice_uice_sd               =   5.6720209343382E-02
(PID.TID 0000.0001) %MON seaice_uice_del2             =   8.4328901141304E-04
(PID.TID 0000.0001) %MON seaice_vice_max              =   3.1077904493835E-01
(PID.TID 0000.0001) %MON seaice_vice_min              =  -3.4496407532551E-01
(PID.TID 0000.0001) %MON seaice_vice_mean             =  -1.4946962517453E-02
(PID.TID 0000.0001) %MON seaice_vice_sd               =   6.2193435541871E-02
(PID.TID 0000.0001) %MON seaice_vice_del2             =   8.1803045153588E-04
(PID.TID 0000.0001) %MON seaice_area_max              =   1.0000000000000E+00
(PID.TID 0000.0001) %MON seaice_area_min              =   0.0000000000000E+00
(PID.TID 0000.0001) %MON seaice_area_mean             =   6.8841311236858E-02
(PID.TID 0000.0001) %MON seaice_area_sd               =   2.3677789402828E-01
(PID.TID 0000.0001) %MON seaice_area_del2             =   1.7243817700898E-03
(PID.TID 0000.0001) %MON seaice_heff_max              =   8.5538142342643E+00
(PID.TID 0000.0001) %MON seaice_heff_min              =   0.0000000000000E+00
(PID.TID 0000.0001) %MON seaice_heff_mean             =   2.0580338147773E-01
(PID.TID 0000.0001) %MON seaice_heff_sd               =   9.8008619150481E-01
(PID.TID 0000.0001) %MON seaice_heff_del2             =   6.2269548948373E-03
(PID.TID 0000.0001) %MON seaice_hsnow_max             =   2.0321496793012E+00
(PID.TID 0000.0001) %MON seaice_hsnow_min             =   0.0000000000000E+00
(PID.TID 0000.0001) %MON seaice_hsnow_mean            =   2.2692820106464E-02
(PID.TID 0000.0001) %MON seaice_hsnow_sd              =   1.1928209977879E-01
(PID.TID 0000.0001) %MON seaice_hsnow_del2            =   1.4596371888829E-03
(PID.TID 0000.0001) // =======================================================
(PID.TID 0000.0001) // End MONITOR SEAICE statistics
(PID.TID 0000.0001) // =======================================================
 Computing Diagnostic #    211  SIarea       Counter:       1   Parms: SM      M1      
 Computing Diagnostic #    214  SIheff       Counter:       1   Parms: SM      M1      
 Computing Diagnostic #    216  SIhsnow      Counter:       1   Parms: SM      M1      
 Computing Diagnostic #     83  sIceLoad     Counter:       1   Parms: SM      U1      
 Computing Diagnostic #    220  SIuice       Counter:       1   Parms: UU      M1      
           Vector  Mate for  SIuice       Diagnostic #    221  SIvice   exists 
 Computing Diagnostic #    221  SIvice       Counter:       1   Parms: VV      M1      
           Vector  Mate for  SIvice       Diagnostic #    220  SIuice   exists 
 Computing Diagnostic #    222  SItaux       Counter:       1   Parms: UU      U1      
           Vector  Mate for  SItaux       Diagnostic #    223  SItauy   exists 
 Computing Diagnostic #    223  SItauy       Counter:       1   Parms: VV      U1      
           Vector  Mate for  SItauy       Diagnostic #    222  SItaux   exists 
 Computing Diagnostic #      1  SDIAG1       Counter:       1   Parms: SM      L1      
 Computing Diagnostic #    282  SIareaN      Counter:       1   Parms: SM      MX      
 Computing Diagnostic #    281  SIheffN      Counter:       1   Parms: SM      MX      
 Computing Diagnostic #    283  SIhsnowN     Counter:       1   Parms: SM      MX      
 SEAICE_LSR: Residual Initial ipass,Uice,Vice=    1  3.20979610E-03  1.73541985E-03
 SEAICE_LSR (ipass=   1) iters,dU,Resid=     8  7.45491993E-05  5.98511321E-05
 SEAICE_LSR (ipass=   1) iters,dV,Resid=     8  1.09837947E-05  3.46694590E-06
 SEAICE_LSR: Residual Initial ipass,Uice,Vice=    2  2.26904307E-03  1.32844482E-03
 SEAICE_LSR (ipass=   2) iters,dU,Resid=     6  8.85196860E-05  7.51933077E-05
 SEAICE_LSR (ipass=   2) iters,dV,Resid=     6  2.08460255E-05  1.09892167E-05
 cg2d: Sum(rhs),rhsMax =  -8.41701634591499E+01  3.63064313848819E+01
(PID.TID 0000.0001)      cg2d_init_res =   1.66777926159918E-01
(PID.TID 0000.0001)      cg2d_iters(min,last) =      -1      10
(PID.TID 0000.0001)      cg2d_last_res =   3.30022790237501E-08
(PID.TID 0000.0001) // =======================================================
(PID.TID 0000.0001) // Begin MONITOR dynamic field statistics
(PID.TID 0000.0001) // =======================================================
(PID.TID 0000.0001) %MON time_tsnumber                =                 72094
(PID.TID 0000.0001) %MON time_secondsf                =   6.4884600000000E+07
(PID.TID 0000.0001) %MON dynstat_eta_max              =   9.6086886629401E-01
(PID.TID 0000.0001) %MON dynstat_eta_min              =  -1.5631414020726E+00
(PID.TID 0000.0001) %MON dynstat_eta_mean             =   3.5509365105823E-02
(PID.TID 0000.0001) %MON dynstat_eta_sd               =   6.0993632196444E-01
(PID.TID 0000.0001) %MON dynstat_eta_del2             =   1.2977474698923E-03
(PID.TID 0000.0001) %MON dynstat_uvel_max             =   3.1314876378092E-01
(PID.TID 0000.0001) %MON dynstat_uvel_min             =  -6.2861143677247E-01
(PID.TID 0000.0001) %MON dynstat_uvel_mean            =  -5.2721729355243E-04
(PID.TID 0000.0001) %MON dynstat_uvel_sd              =   1.2854593431356E-02
(PID.TID 0000.0001) %MON dynstat_uvel_del2            =   8.5481070450911E-05
(PID.TID 0000.0001) %MON dynstat_vvel_max             =   3.5680341173597E-01
(PID.TID 0000.0001) %MON dynstat_vvel_min             =  -3.4825385516162E-01
(PID.TID 0000.0001) %MON dynstat_vvel_mean            =   1.3763608652797E-04
(PID.TID 0000.0001) %MON dynstat_vvel_sd              =   1.3686036011421E-02
(PID.TID 0000.0001) %MON dynstat_vvel_del2            =   8.4837034374539E-05
(PID.TID 0000.0001) %MON dynstat_wvel_max             =   1.0653622635678E-04
(PID.TID 0000.0001) %MON dynstat_wvel_min             =  -1.9145644241818E-04
(PID.TID 0000.0001) %MON dynstat_wvel_mean            =  -4.3478336718018E-08
(PID.TID 0000.0001) %MON dynstat_wvel_sd              =   7.6048195902210E-06
(PID.TID 0000.0001) %MON dynstat_wvel_del2            =   6.4246288889907E-08
(PID.TID 0000.0001) %MON dynstat_theta_max            =   3.0917967588674E+01
(PID.TID 0000.0001) %MON dynstat_theta_min            =  -3.0211285303694E+00
(PID.TID 0000.0001) %MON dynstat_theta_mean           =   3.9092386442040E+00
(PID.TID 0000.0001) %MON dynstat_theta_sd             =   4.5717873509988E+00
(PID.TID 0000.0001) %MON dynstat_theta_del2           =   2.6375228805799E-03
(PID.TID 0000.0001) %MON dynstat_salt_max             =   4.1346846671296E+01
(PID.TID 0000.0001) %MON dynstat_salt_min             =   1.8519324466810E+01
(PID.TID 0000.0001) %MON dynstat_salt_mean            =   3.4771884136861E+01
(PID.TID 0000.0001) %MON dynstat_salt_sd              =   5.3235269099059E-01
(PID.TID 0000.0001) %MON dynstat_salt_del2            =   1.1517357252013E-03
(PID.TID 0000.0001) %MON dynstat_sst_max              =   3.0917967588674E+01
(PID.TID 0000.0001) %MON dynstat_sst_min              =  -1.9163362489189E+00
(PID.TID 0000.0001) %MON dynstat_sst_mean             =   1.8110866507107E+01
(PID.TID 0000.0001) %MON dynstat_sst_sd               =   9.8156877868182E+00
(PID.TID 0000.0001) %MON dynstat_sst_del2             =   1.4955029115663E-02
(PID.TID 0000.0001) %MON dynstat_sss_max              =   4.1346846671296E+01
(PID.TID 0000.0001) %MON dynstat_sss_min              =   1.8752578330749E+01
(PID.TID 0000.0001) %MON dynstat_sss_mean             =   3.4619267019022E+01
(PID.TID 0000.0001) %MON dynstat_sss_sd               =   1.4926051909054E+00
(PID.TID 0000.0001) %MON dynstat_sss_del2             =   1.3110554417967E-02
(PID.TID 0000.0001) %MON forcing_qnet_max             =   1.3233658447266E+03
(PID.TID 0000.0001) %MON forcing_qnet_min             =  -7.6244111019897E+02
(PID.TID 0000.0001) %MON forcing_qnet_mean            =  -4.6751549514794E+01
(PID.TID 0000.0001) %MON forcing_qnet_sd              =   2.0525640510454E+02
(PID.TID 0000.0001) %MON forcing_qnet_del2            =   3.1896549340444E+00
(PID.TID 0000.0001) %MON forcing_qsw_max              =   0.0000000000000E+00
(PID.TID 0000.0001) %MON forcing_qsw_min              =  -1.0280888693472E+02
(PID.TID 0000.0001) %MON forcing_qsw_mean             =  -2.1418256812589E+01
(PID.TID 0000.0001) %MON forcing_qsw_sd               =   3.0341105638776E+01
(PID.TID 0000.0001) %MON forcing_qsw_del2             =   1.3243228598891E-01
(PID.TID 0000.0001) %MON forcing_empmr_max            =   4.2336238548160E-03
(PID.TID 0000.0001) %MON forcing_empmr_min            =  -6.0876563191414E-02
(PID.TID 0000.0001) %MON forcing_empmr_mean           =  -1.8508568747872E-04
(PID.TID 0000.0001) %MON forcing_empmr_sd             =   2.6856947349737E-03
(PID.TID 0000.0001) %MON forcing_empmr_del2           =   1.0588290749339E-04
(PID.TID 0000.0001) %MON forcing_fu_max               =   2.3870549323409E-01
(PID.TID 0000.0001) %MON forcing_fu_min               =  -3.3159193297308E-01
(PID.TID 0000.0001) %MON forcing_fu_mean              =  -5.4237934577089E-03
(PID.TID 0000.0001) %MON forcing_fu_sd                =   5.5126555474041E-02
(PID.TID 0000.0001) %MON forcing_fu_del2              =   5.5302478134012E-04
(PID.TID 0000.0001) %MON forcing_fv_max               =   2.3632161330786E-01
(PID.TID 0000.0001) %MON forcing_fv_min               =  -2.5576277179375E-01
(PID.TID 0000.0001) %MON forcing_fv_mean              =  -1.4951500567352E-02
(PID.TID 0000.0001) %MON forcing_fv_sd                =   5.8697644121458E-02
(PID.TID 0000.0001) %MON forcing_fv_del2              =   4.9533988756135E-04
(PID.TID 0000.0001) %MON trAdv_CFL_u_max              =   1.8333067949880E-03
(PID.TID 0000.0001) %MON trAdv_CFL_v_max              =   1.3084475767109E-03
(PID.TID 0000.0001) %MON trAdv_CFL_w_max              =   1.2508252077728E-03
(PID.TID 0000.0001) %MON advcfl_uvel_max              =   1.8134434423079E-03
(PID.TID 0000.0001) %MON advcfl_vvel_max              =   1.2634209877173E-03
(PID.TID 0000.0001) %MON advcfl_wvel_max              =   2.1174456762231E-03
(PID.TID 0000.0001) %MON advcfl_W_hf_max              =   1.2508252077728E-03
(PID.TID 0000.0001) %MON pe_b_mean                    =   4.9727747199156E-04
(PID.TID 0000.0001) %MON ke_max                       =   1.8567224097101E-01
(PID.TID 0000.0001) %MON ke_mean                      =   1.6294973718350E-04
(PID.TID 0000.0001) %MON ke_vol                       =   1.3398153081844E+18
(PID.TID 0000.0001) %MON vort_r_min                   =  -2.6055745462035E-06
(PID.TID 0000.0001) %MON vort_r_max                   =   2.3935880154202E-06
(PID.TID 0000.0001) %MON vort_a_mean                  =  -2.0549865324846E-05
(PID.TID 0000.0001) %MON vort_a_sd                    =   7.5259655062318E-05
(PID.TID 0000.0001) %MON vort_p_mean                  =  -2.4783226809314E-05
(PID.TID 0000.0001) %MON vort_p_sd                    =   1.2811925773054E-04
(PID.TID 0000.0001) %MON surfExpan_theta_mean         =  -3.8020635931006E-06
(PID.TID 0000.0001) %MON surfExpan_salt_mean          =   8.0909496933529E-07
(PID.TID 0000.0001) // =======================================================
(PID.TID 0000.0001) // End MONITOR dynamic field statistics
(PID.TID 0000.0001) // =======================================================
(PID.TID 0000.0001) // =======================================================
(PID.TID 0000.0001) // Begin MONITOR SEAICE statistics
(PID.TID 0000.0001) // =======================================================
(PID.TID 0000.0001) %MON seaice_tsnumber              =                 72094
(PID.TID 0000.0001) %MON seaice_time_sec              =   6.4884600000000E+07
(PID.TID 0000.0001) %MON seaice_uice_max              =   2.9538012463805E-01
(PID.TID 0000.0001) %MON seaice_uice_min              =  -3.6640289037011E-01
(PID.TID 0000.0001) %MON seaice_uice_mean             =  -7.4512295677870E-03
(PID.TID 0000.0001) %MON seaice_uice_sd               =   5.6542737302973E-02
(PID.TID 0000.0001) %MON seaice_uice_del2             =   8.4496902051544E-04
(PID.TID 0000.0001) %MON seaice_vice_max              =   3.3816122301036E-01
(PID.TID 0000.0001) %MON seaice_vice_min              =  -3.4661649958427E-01
(PID.TID 0000.0001) %MON seaice_vice_mean             =  -1.5052432830554E-02
(PID.TID 0000.0001) %MON seaice_vice_sd               =   6.2086978177547E-02
(PID.TID 0000.0001) %MON seaice_vice_del2             =   8.1537912506213E-04
(PID.TID 0000.0001) %MON seaice_area_max              =   1.0000000000000E+00
(PID.TID 0000.0001) %MON seaice_area_min              =   0.0000000000000E+00
(PID.TID 0000.0001) %MON seaice_area_mean             =   6.8834107720231E-02
(PID.TID 0000.0001) %MON seaice_area_sd               =   2.3675914473565E-01
(PID.TID 0000.0001) %MON seaice_area_del2             =   1.7238598614319E-03
(PID.TID 0000.0001) %MON seaice_heff_max              =   8.5540796285258E+00
(PID.TID 0000.0001) %MON seaice_heff_min              =   0.0000000000000E+00
(PID.TID 0000.0001) %MON seaice_heff_mean             =   2.0579398079783E-01
(PID.TID 0000.0001) %MON seaice_heff_sd               =   9.8007508042640E-01
(PID.TID 0000.0001) %MON seaice_heff_del2             =   6.2266420005188E-03
(PID.TID 0000.0001) %MON seaice_hsnow_max             =   2.0321548898574E+00
(PID.TID 0000.0001) %MON seaice_hsnow_min             =   0.0000000000000E+00
(PID.TID 0000.0001) %MON seaice_hsnow_mean            =   2.2691688298804E-02
(PID.TID 0000.0001) %MON seaice_hsnow_sd              =   1.1927832495647E-01
(PID.TID 0000.0001) %MON seaice_hsnow_del2            =   1.4595319230939E-03
(PID.TID 0000.0001) // =======================================================
(PID.TID 0000.0001) // End MONITOR SEAICE statistics
(PID.TID 0000.0001) // =======================================================
 SEAICE_LSR: Residual Initial ipass,Uice,Vice=    1  3.13180788E-03  1.75399910E-03
 SEAICE_LSR (ipass=   1) iters,dU,Resid=     8  7.13647683E-05  6.02228644E-05
 SEAICE_LSR (ipass=   1) iters,dV,Resid=     8  9.78492180E-06  3.01978529E-06
 SEAICE_LSR: Residual Initial ipass,Uice,Vice=    2  2.20942297E-03  1.34302281E-03
 SEAICE_LSR (ipass=   2) iters,dU,Resid=     6  8.27380612E-05  7.46491778E-05
 SEAICE_LSR (ipass=   2) iters,dV,Resid=     6  1.75901588E-05  1.04325693E-05
 cg2d: Sum(rhs),rhsMax =  -8.44963639741153E+01  3.63287625948733E+01
(PID.TID 0000.0001)      cg2d_init_res =   1.62382836846427E-01
(PID.TID 0000.0001)      cg2d_iters(min,last) =      -1      10
(PID.TID 0000.0001)      cg2d_last_res =   3.27619522451679E-08
(PID.TID 0000.0001) // =======================================================
(PID.TID 0000.0001) // Begin MONITOR dynamic field statistics
(PID.TID 0000.0001) // =======================================================
(PID.TID 0000.0001) %MON time_tsnumber                =                 72095
(PID.TID 0000.0001) %MON time_secondsf                =   6.4885500000000E+07
(PID.TID 0000.0001) %MON dynstat_eta_max              =   9.5640361299126E-01
(PID.TID 0000.0001) %MON dynstat_eta_min              =  -1.5646049195466E+00
(PID.TID 0000.0001) %MON dynstat_eta_mean             =   3.5668906846146E-02
(PID.TID 0000.0001) %MON dynstat_eta_sd               =   6.0969990490368E-01
(PID.TID 0000.0001) %MON dynstat_eta_del2             =   1.3048787309293E-03
(PID.TID 0000.0001) %MON dynstat_uvel_max             =   2.9818286797745E-01
(PID.TID 0000.0001) %MON dynstat_uvel_min             =  -6.0860325593482E-01
(PID.TID 0000.0001) %MON dynstat_uvel_mean            =  -5.3255366084040E-04
(PID.TID 0000.0001) %MON dynstat_uvel_sd              =   1.2850011413501E-02
(PID.TID 0000.0001) %MON dynstat_uvel_del2            =   8.5374152575147E-05
(PID.TID 0000.0001) %MON dynstat_vvel_max             =   3.8165126818530E-01
(PID.TID 0000.0001) %MON dynstat_vvel_min             =  -3.4986556760850E-01
(PID.TID 0000.0001) %MON dynstat_vvel_mean            =   1.4299368900874E-04
(PID.TID 0000.0001) %MON dynstat_vvel_sd              =   1.3681698634229E-02
(PID.TID 0000.0001) %MON dynstat_vvel_del2            =   8.4749185419090E-05
(PID.TID 0000.0001) %MON dynstat_wvel_max             =   1.0674326336055E-04
(PID.TID 0000.0001) %MON dynstat_wvel_min             =  -1.9158015494974E-04
(PID.TID 0000.0001) %MON dynstat_wvel_mean            =  -4.4066735744766E-08
(PID.TID 0000.0001) %MON dynstat_wvel_sd              =   7.6152526714767E-06
(PID.TID 0000.0001) %MON dynstat_wvel_del2            =   6.4061803209923E-08
(PID.TID 0000.0001) %MON dynstat_theta_max            =   3.0917637260723E+01
(PID.TID 0000.0001) %MON dynstat_theta_min            =  -3.0218355553820E+00
(PID.TID 0000.0001) %MON dynstat_theta_mean           =   3.9092424826469E+00
(PID.TID 0000.0001) %MON dynstat_theta_sd             =   4.5718035508691E+00
(PID.TID 0000.0001) %MON dynstat_theta_del2           =   2.6373888670348E-03
(PID.TID 0000.0001) %MON dynstat_salt_max             =   4.1346932761279E+01
(PID.TID 0000.0001) %MON dynstat_salt_min             =   1.8519334591665E+01
(PID.TID 0000.0001) %MON dynstat_salt_mean            =   3.4771882837901E+01
(PID.TID 0000.0001) %MON dynstat_salt_sd              =   5.3236150706946E-01
(PID.TID 0000.0001) %MON dynstat_salt_del2            =   1.1534442671865E-03
(PID.TID 0000.0001) %MON dynstat_sst_max              =   3.0917637260723E+01
(PID.TID 0000.0001) %MON dynstat_sst_min              =  -1.9162342463656E+00
(PID.TID 0000.0001) %MON dynstat_sst_mean             =   1.8111075917466E+01
(PID.TID 0000.0001) %MON dynstat_sst_sd               =   9.8158921355308E+00
(PID.TID 0000.0001) %MON dynstat_sst_del2             =   1.4952520279057E-02
(PID.TID 0000.0001) %MON dynstat_sss_max              =   4.1346932761279E+01
(PID.TID 0000.0001) %MON dynstat_sss_min              =   1.8752591185429E+01
(PID.TID 0000.0001) %MON dynstat_sss_mean             =   3.4619169213830E+01
(PID.TID 0000.0001) %MON dynstat_sss_sd               =   1.4928214082260E+00
(PID.TID 0000.0001) %MON dynstat_sss_del2             =   1.3134317055451E-02
(PID.TID 0000.0001) %MON forcing_qnet_max             =   1.3087640330863E+03
(PID.TID 0000.0001) %MON forcing_qnet_min             =  -7.5220068999794E+02
(PID.TID 0000.0001) %MON forcing_qnet_mean            =  -4.8413732080832E+01
(PID.TID 0000.0001) %MON forcing_qnet_sd              =   2.0655495169147E+02
(PID.TID 0000.0001) %MON forcing_qnet_del2            =   2.9613204741025E+00
(PID.TID 0000.0001) %MON forcing_qsw_max              =   0.0000000000000E+00
(PID.TID 0000.0001) %MON forcing_qsw_min              =  -1.0227932529213E+02
(PID.TID 0000.0001) %MON forcing_qsw_mean             =  -2.1593573262905E+01
(PID.TID 0000.0001) %MON forcing_qsw_sd               =   3.0400001216356E+01
(PID.TID 0000.0001) %MON forcing_qsw_del2             =   1.3202964761738E-01
(PID.TID 0000.0001) %MON forcing_empmr_max            =   4.1900309734046E-03
(PID.TID 0000.0001) %MON forcing_empmr_min            =  -6.0249768197536E-02
(PID.TID 0000.0001) %MON forcing_empmr_mean           =  -1.8347300137170E-04
(PID.TID 0000.0001) %MON forcing_empmr_sd             =   2.6584012114540E-03
(PID.TID 0000.0001) %MON forcing_empmr_del2           =   1.0475604043605E-04
(PID.TID 0000.0001) %MON forcing_fu_max               =   2.3621306983670E-01
(PID.TID 0000.0001) %MON forcing_fu_min               =  -3.3305486440807E-01
(PID.TID 0000.0001) %MON forcing_fu_mean              =  -5.5097735189868E-03
(PID.TID 0000.0001) %MON forcing_fu_sd                =   5.4949196569312E-02
(PID.TID 0000.0001) %MON forcing_fu_del2              =   5.5209835917946E-04
(PID.TID 0000.0001) %MON forcing_fv_max               =   2.4129000266423E-01
(PID.TID 0000.0001) %MON forcing_fv_min               =  -2.5422702659296E-01
(PID.TID 0000.0001) %MON forcing_fv_mean              =  -1.4913651987995E-02
(PID.TID 0000.0001) %MON forcing_fv_sd                =   5.8555083912213E-02
(PID.TID 0000.0001) %MON forcing_fv_del2              =   4.9423224432840E-04
(PID.TID 0000.0001) %MON trAdv_CFL_u_max              =   1.7762834374608E-03
(PID.TID 0000.0001) %MON trAdv_CFL_v_max              =   1.3994946818612E-03
(PID.TID 0000.0001) %MON trAdv_CFL_w_max              =   1.2358431588518E-03
(PID.TID 0000.0001) %MON advcfl_uvel_max              =   1.7557230411030E-03
(PID.TID 0000.0001) %MON advcfl_vvel_max              =   1.3514058620355E-03
(PID.TID 0000.0001) %MON advcfl_wvel_max              =   2.0956441112187E-03
(PID.TID 0000.0001) %MON advcfl_W_hf_max              =   1.2358431588518E-03
(PID.TID 0000.0001) %MON pe_b_mean                    =   4.9690845606780E-04
(PID.TID 0000.0001) %MON ke_max                       =   1.8109172884683E-01
(PID.TID 0000.0001) %MON ke_mean                      =   1.6284385166252E-04
(PID.TID 0000.0001) %MON ke_vol                       =   1.3398153667498E+18
(PID.TID 0000.0001) %MON vort_r_min                   =  -2.6457579678164E-06
(PID.TID 0000.0001) %MON vort_r_max                   =   2.3112412399517E-06
(PID.TID 0000.0001) %MON vort_a_mean                  =  -2.0549865324846E-05
(PID.TID 0000.0001) %MON vort_a_sd                    =   7.5259655658050E-05
(PID.TID 0000.0001) %MON vort_p_mean                  =  -2.4783225782123E-05
(PID.TID 0000.0001) %MON vort_p_sd                    =   1.2811925667725E-04
(PID.TID 0000.0001) %MON surfExpan_theta_mean         =  -3.7227368268261E-06
(PID.TID 0000.0001) %MON surfExpan_salt_mean          =   7.9254335196371E-07
(PID.TID 0000.0001) // =======================================================
(PID.TID 0000.0001) // End MONITOR dynamic field statistics
(PID.TID 0000.0001) // =======================================================
(PID.TID 0000.0001) // =======================================================
(PID.TID 0000.0001) // Begin MONITOR SEAICE statistics
(PID.TID 0000.0001) // =======================================================
(PID.TID 0000.0001) %MON seaice_tsnumber              =                 72095
(PID.TID 0000.0001) %MON seaice_time_sec              =   6.4885500000000E+07
(PID.TID 0000.0001) %MON seaice_uice_max              =   2.7770153145157E-01
(PID.TID 0000.0001) %MON seaice_uice_min              =  -3.5710343034652E-01
(PID.TID 0000.0001) %MON seaice_uice_mean             =  -7.5464449663952E-03
(PID.TID 0000.0001) %MON seaice_uice_sd               =   5.6409285724758E-02
(PID.TID 0000.0001) %MON seaice_uice_del2             =   8.4697876699298E-04
(PID.TID 0000.0001) %MON seaice_vice_max              =   3.6484750158357E-01
(PID.TID 0000.0001) %MON seaice_vice_min              =  -3.4825385514883E-01
(PID.TID 0000.0001) %MON seaice_vice_mean             =  -1.5170078197686E-02
(PID.TID 0000.0001) %MON seaice_vice_sd               =   6.1994384483985E-02
(PID.TID 0000.0001) %MON seaice_vice_del2             =   8.1474850397233E-04
(PID.TID 0000.0001) %MON seaice_area_max              =   1.0000000000000E+00
(PID.TID 0000.0001) %MON seaice_area_min              =   0.0000000000000E+00
(PID.TID 0000.0001) %MON seaice_area_mean             =   6.8826908427607E-02
(PID.TID 0000.0001) %MON seaice_area_sd               =   2.3674034935008E-01
(PID.TID 0000.0001) %MON seaice_area_del2             =   1.7233389868060E-03
(PID.TID 0000.0001) %MON seaice_heff_max              =   8.5543378921853E+00
(PID.TID 0000.0001) %MON seaice_heff_min              =   0.0000000000000E+00
(PID.TID 0000.0001) %MON seaice_heff_mean             =   2.0578449407133E-01
(PID.TID 0000.0001) %MON seaice_heff_sd               =   9.8006358553962E-01
(PID.TID 0000.0001) %MON seaice_heff_del2             =   6.2263353693919E-03
(PID.TID 0000.0001) %MON seaice_hsnow_max             =   2.0321585120696E+00
(PID.TID 0000.0001) %MON seaice_hsnow_min             =   0.0000000000000E+00
(PID.TID 0000.0001) %MON seaice_hsnow_mean            =   2.2690498641593E-02
(PID.TID 0000.0001) %MON seaice_hsnow_sd              =   1.1927452478865E-01
(PID.TID 0000.0001) %MON seaice_hsnow_del2            =   1.4594226382975E-03
(PID.TID 0000.0001) // =======================================================
(PID.TID 0000.0001) // End MONITOR SEAICE statistics
(PID.TID 0000.0001) // =======================================================
 SEAICE_LSR: Residual Initial ipass,Uice,Vice=    1  3.14738918E-03  1.74312554E-03
 SEAICE_LSR (ipass=   1) iters,dU,Resid=     8  6.84972661E-05  6.12636710E-05
 SEAICE_LSR (ipass=   1) iters,dV,Resid=     8  8.07735667E-06  2.93263516E-06
 SEAICE_LSR: Residual Initial ipass,Uice,Vice=    2  2.19562172E-03  1.33536835E-03
 SEAICE_LSR (ipass=   2) iters,dU,Resid=     6  7.64815229E-05  7.58127760E-05
 SEAICE_LSR (ipass=   2) iters,dV,Resid=     6  1.38048800E-05  1.04648605E-05
 cg2d: Sum(rhs),rhsMax =  -8.48198930652426E+01  3.63507411987880E+01
(PID.TID 0000.0001)      cg2d_init_res =   1.58202801964413E-01
(PID.TID 0000.0001)      cg2d_iters(min,last) =      -1      10
(PID.TID 0000.0001)      cg2d_last_res =   3.32546725799534E-08
(PID.TID 0000.0001) // =======================================================
(PID.TID 0000.0001) // Begin MONITOR dynamic field statistics
(PID.TID 0000.0001) // =======================================================
(PID.TID 0000.0001) %MON time_tsnumber                =                 72096
(PID.TID 0000.0001) %MON time_secondsf                =   6.4886400000000E+07
(PID.TID 0000.0001) %MON dynstat_eta_max              =   9.5181929455947E-01
(PID.TID 0000.0001) %MON dynstat_eta_min              =  -1.5662093942512E+00
(PID.TID 0000.0001) %MON dynstat_eta_mean             =   3.5827141952318E-02
(PID.TID 0000.0001) %MON dynstat_eta_sd               =   6.0943587572141E-01
(PID.TID 0000.0001) %MON dynstat_eta_del2             =   1.3095093552908E-03
(PID.TID 0000.0001) %MON dynstat_uvel_max             =   2.8433767596850E-01
(PID.TID 0000.0001) %MON dynstat_uvel_min             =  -5.9114368945580E-01
(PID.TID 0000.0001) %MON dynstat_uvel_mean            =  -5.3740605632979E-04
(PID.TID 0000.0001) %MON dynstat_uvel_sd              =   1.2846020242841E-02
(PID.TID 0000.0001) %MON dynstat_uvel_del2            =   8.5243615601787E-05
(PID.TID 0000.0001) %MON dynstat_vvel_max             =   4.0481578834776E-01
(PID.TID 0000.0001) %MON dynstat_vvel_min             =  -3.5145874491345E-01
(PID.TID 0000.0001) %MON dynstat_vvel_mean            =   1.5000268651572E-04
(PID.TID 0000.0001) %MON dynstat_vvel_sd              =   1.3678749533588E-02
(PID.TID 0000.0001) %MON dynstat_vvel_del2            =   8.4800819131439E-05
(PID.TID 0000.0001) %MON dynstat_wvel_max             =   1.0693352818096E-04
(PID.TID 0000.0001) %MON dynstat_wvel_min             =  -1.9169041358155E-04
(PID.TID 0000.0001) %MON dynstat_wvel_mean            =  -4.5017775609955E-08
(PID.TID 0000.0001) %MON dynstat_wvel_sd              =   7.6264476822117E-06
(PID.TID 0000.0001) %MON dynstat_wvel_del2            =   6.3892730812063E-08
(PID.TID 0000.0001) %MON dynstat_theta_max            =   3.0917299983015E+01
(PID.TID 0000.0001) %MON dynstat_theta_min            =  -3.0225579346549E+00
(PID.TID 0000.0001) %MON dynstat_theta_mean           =   3.9092463771081E+00
(PID.TID 0000.0001) %MON dynstat_theta_sd             =   4.5718200834080E+00
(PID.TID 0000.0001) %MON dynstat_theta_del2           =   2.6372474521632E-03
(PID.TID 0000.0001) %MON dynstat_salt_max             =   4.1347036640490E+01
(PID.TID 0000.0001) %MON dynstat_salt_min             =   1.8519344722166E+01
(PID.TID 0000.0001) %MON dynstat_salt_mean            =   3.4771881554831E+01
(PID.TID 0000.0001) %MON dynstat_salt_sd              =   5.3237020173373E-01
(PID.TID 0000.0001) %MON dynstat_salt_del2            =   1.1551128330617E-03
(PID.TID 0000.0001) %MON dynstat_sst_max              =   3.0917299983015E+01
(PID.TID 0000.0001) %MON dynstat_sst_min              =  -1.9161432534677E+00
(PID.TID 0000.0001) %MON dynstat_sst_mean             =   1.8111294636805E+01
(PID.TID 0000.0001) %MON dynstat_sst_sd               =   9.8160977431474E+00
(PID.TID 0000.0001) %MON dynstat_sst_del2             =   1.4949655224552E-02
(PID.TID 0000.0001) %MON dynstat_sss_max              =   4.1347036640490E+01
(PID.TID 0000.0001) %MON dynstat_sss_min              =   1.8752603889704E+01
(PID.TID 0000.0001) %MON dynstat_sss_mean             =   3.4619073413237E+01
(PID.TID 0000.0001) %MON dynstat_sss_sd               =   1.4930347763706E+00
(PID.TID 0000.0001) %MON dynstat_sss_del2             =   1.3157512422983E-02
(PID.TID 0000.0001) %MON forcing_qnet_max             =   1.2942338595949E+03
(PID.TID 0000.0001) %MON forcing_qnet_min             =  -7.4216325054418E+02
(PID.TID 0000.0001) %MON forcing_qnet_mean            =  -4.9429072555333E+01
(PID.TID 0000.0001) %MON forcing_qnet_sd              =   2.0904141532898E+02
(PID.TID 0000.0001) %MON forcing_qnet_del2            =   2.9559020074599E+00
(PID.TID 0000.0001) %MON forcing_qsw_max              =   0.0000000000000E+00
(PID.TID 0000.0001) %MON forcing_qsw_min              =  -1.0345074023723E+02
(PID.TID 0000.0001) %MON forcing_qsw_mean             =  -2.1707282728922E+01
(PID.TID 0000.0001) %MON forcing_qsw_sd               =   3.0402682504037E+01
(PID.TID 0000.0001) %MON forcing_qsw_del2             =   1.3153055455442E-01
(PID.TID 0000.0001) %MON forcing_empmr_max            =   4.1468315757811E-03
(PID.TID 0000.0001) %MON forcing_empmr_min            =  -5.9630516916513E-02
(PID.TID 0000.0001) %MON forcing_empmr_mean           =  -1.8197037209753E-04
(PID.TID 0000.0001) %MON forcing_empmr_sd             =   2.6318827256622E-03
(PID.TID 0000.0001) %MON forcing_empmr_del2           =   1.0366545073404E-04
(PID.TID 0000.0001) %MON forcing_fu_max               =   2.3732960091324E-01
(PID.TID 0000.0001) %MON forcing_fu_min               =  -3.3532552425461E-01
(PID.TID 0000.0001) %MON forcing_fu_mean              =  -5.6260519493716E-03
(PID.TID 0000.0001) %MON forcing_fu_sd                =   5.4844169857773E-02
(PID.TID 0000.0001) %MON forcing_fu_del2              =   5.5143909808274E-04
(PID.TID 0000.0001) %MON forcing_fv_max               =   2.3458160803067E-01
(PID.TID 0000.0001) %MON forcing_fv_min               =  -2.5247293980719E-01
(PID.TID 0000.0001) %MON forcing_fv_mean              =  -1.4901849090579E-02
(PID.TID 0000.0001) %MON forcing_fv_sd                =   5.8277326538733E-02
(PID.TID 0000.0001) %MON forcing_fv_del2              =   4.9168361331233E-04
(PID.TID 0000.0001) %MON trAdv_CFL_u_max              =   1.7138306909037E-03
(PID.TID 0000.0001) %MON trAdv_CFL_v_max              =   1.4845453908773E-03
(PID.TID 0000.0001) %MON trAdv_CFL_w_max              =   1.2202177873874E-03
(PID.TID 0000.0001) %MON advcfl_uvel_max              =   1.6931263390584E-03
(PID.TID 0000.0001) %MON advcfl_vvel_max              =   1.4334301364146E-03
(PID.TID 0000.0001) %MON advcfl_wvel_max              =   2.0741049362266E-03
(PID.TID 0000.0001) %MON advcfl_W_hf_max              =   1.2616615424981E-03
(PID.TID 0000.0001) %MON pe_b_mean                    =   4.9649469626614E-04
(PID.TID 0000.0001) %MON ke_max                       =   1.7559461787078E-01
(PID.TID 0000.0001) %MON ke_mean                      =   1.6276263839000E-04
(PID.TID 0000.0001) %MON ke_vol                       =   1.3398154248049E+18
(PID.TID 0000.0001) %MON vort_r_min                   =  -2.6836009063356E-06
(PID.TID 0000.0001) %MON vort_r_max                   =   2.2231542166389E-06
(PID.TID 0000.0001) %MON vort_a_mean                  =  -2.0549865324846E-05
(PID.TID 0000.0001) %MON vort_a_sd                    =   7.5259656506873E-05
(PID.TID 0000.0001) %MON vort_p_mean                  =  -2.4783224763611E-05
(PID.TID 0000.0001) %MON vort_p_sd                    =   1.2811925419798E-04
(PID.TID 0000.0001) %MON surfExpan_theta_mean         =  -3.6592376253314E-06
(PID.TID 0000.0001) %MON surfExpan_salt_mean          =   7.7782789737579E-07
(PID.TID 0000.0001) // =======================================================
(PID.TID 0000.0001) // End MONITOR dynamic field statistics
(PID.TID 0000.0001) // =======================================================
(PID.TID 0000.0001) // =======================================================
(PID.TID 0000.0001) // Begin MONITOR SEAICE statistics
(PID.TID 0000.0001) // =======================================================
(PID.TID 0000.0001) %MON seaice_tsnumber              =                 72096
(PID.TID 0000.0001) %MON seaice_time_sec              =   6.4886400000000E+07
(PID.TID 0000.0001) %MON seaice_uice_max              =   2.6077797242171E-01
(PID.TID 0000.0001) %MON seaice_uice_min              =  -3.4741719772332E-01
(PID.TID 0000.0001) %MON seaice_uice_mean             =  -7.6352735134292E-03
(PID.TID 0000.0001) %MON seaice_uice_sd               =   5.6306148636749E-02
(PID.TID 0000.0001) %MON seaice_uice_del2             =   8.4881435764479E-04
(PID.TID 0000.0001) %MON seaice_vice_max              =   3.9027901369525E-01
(PID.TID 0000.0001) %MON seaice_vice_min              =  -3.4986556759591E-01
(PID.TID 0000.0001) %MON seaice_vice_mean             =  -1.5278268490014E-02
(PID.TID 0000.0001) %MON seaice_vice_sd               =   6.1906662377913E-02
(PID.TID 0000.0001) %MON seaice_vice_del2             =   8.1509156737776E-04
(PID.TID 0000.0001) %MON seaice_area_max              =   1.0000000000000E+00
(PID.TID 0000.0001) %MON seaice_area_min              =   0.0000000000000E+00
(PID.TID 0000.0001) %MON seaice_area_mean             =   6.8819701059787E-02
(PID.TID 0000.0001) %MON seaice_area_sd               =   2.3672151846751E-01
(PID.TID 0000.0001) %MON seaice_area_del2             =   1.7228129497837E-03
(PID.TID 0000.0001) %MON seaice_heff_max              =   8.5545893520655E+00
(PID.TID 0000.0001) %MON seaice_heff_min              =   0.0000000000000E+00
(PID.TID 0000.0001) %MON seaice_heff_mean             =   2.0577492573685E-01
(PID.TID 0000.0001) %MON seaice_heff_sd               =   9.8005172454683E-01
(PID.TID 0000.0001) %MON seaice_heff_del2             =   6.2260328534381E-03
(PID.TID 0000.0001) %MON seaice_hsnow_max             =   2.0321627122331E+00
(PID.TID 0000.0001) %MON seaice_hsnow_min             =   0.0000000000000E+00
(PID.TID 0000.0001) %MON seaice_hsnow_mean            =   2.2689264533620E-02
(PID.TID 0000.0001) %MON seaice_hsnow_sd              =   1.1927068553786E-01
(PID.TID 0000.0001) %MON seaice_hsnow_del2            =   1.4593092451798E-03
(PID.TID 0000.0001) // =======================================================
(PID.TID 0000.0001) // End MONITOR SEAICE statistics
(PID.TID 0000.0001) // =======================================================
 Computing Diagnostic #     86  oceQnet      Counter:      48   Parms: SM      U1      
 Computing Diagnostic #     87  oceQsw       Counter:      48   Parms: SM      U1      
 Computing Diagnostic #     84  oceFWflx     Counter:      48   Parms: SM      U1      
 Computing Diagnostic #     85  oceSflux     Counter:      48   Parms: SM      U1      
 Computing Diagnostic #     80  oceTAUX      Counter:      48   Parms: UU      U1      
           Vector  Mate for  oceTAUX      Diagnostic #     81  oceTAUY  exists 
 Computing Diagnostic #     81  oceTAUY      Counter:      48   Parms: VV      U1      
           Vector  Mate for  oceTAUY      Diagnostic #     80  oceTAUX  exists 
 Computing Diagnostic #     26  THETA        Counter:      48   Parms: SMR     MR      
 Computing Diagnostic #     27  SALT         Counter:      48   Parms: SMR     MR      
 Computing Diagnostic #     30  UVEL         Counter:      48   Parms: UUR     MR      
           Vector  Mate for  UVEL         Diagnostic #     31  VVEL     exists 
 Computing Diagnostic #     31  VVEL         Counter:      48   Parms: VVR     MR      
           Vector  Mate for  VVEL         Diagnostic #     30  UVEL     exists 
 Computing Diagnostic #    211  SIarea       Counter:      48   Parms: SM      M1      
 Computing Diagnostic #    214  SIheff       Counter:      48   Parms: SM      M1      
 Computing Diagnostic #    216  SIhsnow      Counter:      48   Parms: SM      M1      
 Computing Diagnostic #     83  sIceLoad     Counter:      48   Parms: SM      U1      
 Computing Diagnostic #    220  SIuice       Counter:      48   Parms: UU      M1      
           Vector  Mate for  SIuice       Diagnostic #    221  SIvice   exists 
 Computing Diagnostic #    221  SIvice       Counter:      48   Parms: VV      M1      
           Vector  Mate for  SIvice       Diagnostic #    220  SIuice   exists 
 Computing Diagnostic #    222  SItaux       Counter:      48   Parms: UU      U1      
           Vector  Mate for  SItaux       Diagnostic #    223  SItauy   exists 
 Computing Diagnostic #    223  SItauy       Counter:      48   Parms: VV      U1      
           Vector  Mate for  SItauy       Diagnostic #    222  SItaux   exists 
 Compute Stats, Diag. #    211  SIarea    vol(   0 ): 1.456E+15  Parms: SM      M1      
 Compute Stats, Diag. #    214  SIheff    vol(   0 ): 1.456E+15  Parms: SM      M1      
 Compute Stats, Diag. #    216  SIhsnow   vol(   0 ): 1.456E+15  Parms: SM      M1      
 Compute Stats, Diag. #     83  sIceLoad  vol(   0 ): 1.456E+15  Parms: SM      U1      
 Compute Stats, Diag. #    220  SIuice    vol(   0 ): 1.383E+15  Parms: UU      M1      
 Compute Stats, Diag. #    221  SIvice    vol(   0 ): 1.391E+15  Parms: VV      M1      
 Compute Stats, Diag. #    222  SItaux    vol(   0 ): 1.383E+15  Parms: UU      U1      
 Compute Stats, Diag. #    223  SItauy    vol(   0 ): 1.391E+15  Parms: VV      U1      
(PID.TID 0000.0001) DIAGSTATS_CLOSE_IO: close file: iceStDiag.0000072000.txt , unit=    37
(PID.TID 0000.0001) %CHECKPOINT     72096 ckptA
