(PID.TID 0000.0001) 
(PID.TID 0000.0001) // ======================================================
(PID.TID 0000.0001) //                      MITgcm UV
(PID.TID 0000.0001) //                      =========
(PID.TID 0000.0001) // ======================================================
(PID.TID 0000.0001) // execution environment starting up...
(PID.TID 0000.0001) 
(PID.TID 0000.0001) // MITgcmUV version:  checkpoint66k
(PID.TID 0000.0001) // Build user:        dmenemen
(PID.TID 0000.0001) // Build host:        r429i1n17
(PID.TID 0000.0001) // Build date:        Wed Oct 11 15:57:57 PDT 2017
(PID.TID 0000.0001) 
(PID.TID 0000.0001) // =======================================================
(PID.TID 0000.0001) // Execution Environment parameter file "eedata"
(PID.TID 0000.0001) // =======================================================
(PID.TID 0000.0001) ># Example "eedata" file
(PID.TID 0000.0001) ># Lines beginning "#" are comments
(PID.TID 0000.0001) ># nTx - No. threads per process in X
(PID.TID 0000.0001) ># nTy - No. threads per process in Y
(PID.TID 0000.0001) > &EEPARMS
(PID.TID 0000.0001) > useCubedSphereExchange=.TRUE.,
(PID.TID 0000.0001) > nTx=1,
(PID.TID 0000.0001) > nTy=1,
(PID.TID 0000.0001) > &
(PID.TID 0000.0001) 
(PID.TID 0000.0001) // =======================================================
(PID.TID 0000.0001) // Computational Grid Specification ( see files "SIZE.h" )
(PID.TID 0000.0001) //                                  ( and "eedata"       )
(PID.TID 0000.0001) // =======================================================
(PID.TID 0000.0001)      nPx =   96 ; /* No. processes in X */
(PID.TID 0000.0001)      nPy =    1 ; /* No. processes in Y */
(PID.TID 0000.0001)      nSx =    1 ; /* No. tiles in X per process */
(PID.TID 0000.0001)      nSy =    1 ; /* No. tiles in Y per process */
(PID.TID 0000.0001)      sNx =   30 ; /* Tile size in X */
(PID.TID 0000.0001)      sNy =   30 ; /* Tile size in Y */
(PID.TID 0000.0001)      OLx =    8 ; /* Tile overlap distance in X */
(PID.TID 0000.0001)      OLy =    8 ; /* Tile overlap distance in Y */
(PID.TID 0000.0001)      nTx =    1 ; /* No. threads in X per process */
(PID.TID 0000.0001)      nTy =    1 ; /* No. threads in Y per process */
(PID.TID 0000.0001)       Nr =   50 ; /* No. levels in the vertical   */
(PID.TID 0000.0001)       Nx = 2880 ; /* Total domain size in X ( = nPx*nSx*sNx ) */
(PID.TID 0000.0001)       Ny =   30 ; /* Total domain size in Y ( = nPy*nSy*sNy ) */
(PID.TID 0000.0001)   nTiles =    1 ; /* Total no. tiles per process ( = nSx*nSy ) */
(PID.TID 0000.0001)   nProcs =   96 ; /* Total no. processes ( = nPx*nPy ) */
(PID.TID 0000.0001) nThreads =    1 ; /* Total no. threads per process ( = nTx*nTy ) */
(PID.TID 0000.0001) usingMPI =    T ; /* Flag used to control whether MPI is in use */
(PID.TID 0000.0001)                   /*  note: To execute a program with MPI calls */
(PID.TID 0000.0001)                   /*  it must be launched appropriately e.g     */
(PID.TID 0000.0001)                   /*  "mpirun -np 64 ......"                    */
(PID.TID 0000.0001) useCoupler=    F ;/* Flag used to control communications with   */
(PID.TID 0000.0001)                   /*  other model components, through a coupler */
(PID.TID 0000.0001) debugMode =    F ; /* print debug msg. (sequence of S/R calls)  */
(PID.TID 0000.0001) printMapIncludesZeros=    F ; /* print zeros in Std.Output maps */
(PID.TID 0000.0001) maxLengthPrt1D=   65 /* maxLength of 1D array printed to StdOut */
(PID.TID 0000.0001) 
(PID.TID 0000.0001) ======= Starting MPI parallel Run =========
(PID.TID 0000.0001)  My Processor Name (len:  8 ) = r429i2n0
(PID.TID 0000.0001)  Located at (  0,  0) on processor grid (0: 95,0:  0)
(PID.TID 0000.0001)  Origin at  (     1,     1) on global grid (1:  2880,1:    30)
(PID.TID 0000.0001)  North neighbor = processor 0000
(PID.TID 0000.0001)  South neighbor = processor 0000
(PID.TID 0000.0001)   East neighbor = processor 0001
(PID.TID 0000.0001)   West neighbor = processor 0095
(PID.TID 0000.0001) // ======================================================
(PID.TID 0000.0001) // Mapping of tiles to threads
(PID.TID 0000.0001) // ======================================================
(PID.TID 0000.0001) // -o- Thread   1, tiles (   1:   1,   1:   1)
(PID.TID 0000.0001) 
(PID.TID 0000.0001) W2_READPARMS: opening data.exch2
(PID.TID 0000.0001)  OPEN_COPY_DATA_FILE: opening file data.exch2
(PID.TID 0000.0001) // =======================================================
(PID.TID 0000.0001) // Parameter file "data.exch2"
(PID.TID 0000.0001) // =======================================================
(PID.TID 0000.0001) ># EXCH2 Package: Wrapper-2 User Choice
(PID.TID 0000.0001) >#--------------------
(PID.TID 0000.0001) >#  preDefTopol   :: pre-defined Topology selector:
(PID.TID 0000.0001) >#                :: = 0 : topology defined from processing "data.exch2";
(PID.TID 0000.0001) >#                :: = 1 : simple, single facet topology;
(PID.TID 0000.0001) >#                :: = 2 : customized topology (w2_set_myown_facets)
(PID.TID 0000.0001) >#                :: = 3 : 6-facet Cube (3 face-dims: nRed, nGreen, nBlue).
(PID.TID 0000.0001) >#  dimsFacets    :: facet pair of dimensions (n1x,n1y, n2x,n2y ...)
(PID.TID 0000.0001) >#  facetEdgeLink :: Face-Edge connectivity map:
(PID.TID 0000.0001) >#    facetEdgeLink(i,j)=XX.1 : face(j)-edge(i) (i=1,2,3,4 <==> N,S,E,W)
(PID.TID 0000.0001) >#    is connected to Northern edge of face "XX" ; similarly,
(PID.TID 0000.0001) >#    = XX.2 : to Southern.E, XX.3 = Eastern.E, XX.4 = Western.E of face "XX"
(PID.TID 0000.0001) >#  blankList     :: List of "blank" tiles
(PID.TID 0000.0001) >#  W2_mapIO      :: global map IO selector (-1 = old type ; 0 = 1 long line in X
(PID.TID 0000.0001) >#                :: 1 = compact, mostly in Y dir)
(PID.TID 0000.0001) >#  W2_printMsg   :: option for information messages printing
(PID.TID 0000.0001) >#                :: <0 : write to log file ; =0 : minimum print ;
(PID.TID 0000.0001) >#                :: =1 : no duplicated print ; =2 : all processes do print
(PID.TID 0000.0001) >#--------------------
(PID.TID 0000.0001) > &W2_EXCH2_PARM01
(PID.TID 0000.0001) >  W2_printMsg= 0,
(PID.TID 0000.0001) >  W2_mapIO   = 1,
(PID.TID 0000.0001) >#
(PID.TID 0000.0001) >  preDefTopol=0,
(PID.TID 0000.0001) >#-- 5 facets llc_120 topology (drop facet 6 and its connection):
(PID.TID 0000.0001) >  dimsFacets(1:10) = 90, 270, 90, 270, 90, 90, 270, 90, 270, 90,
(PID.TID 0000.0001) >  facetEdgeLink(1:4,1)= 3.4, 0. , 2.4, 5.1,
(PID.TID 0000.0001) >  facetEdgeLink(1:4,2)= 3.2, 0. , 4.2, 1.3,
(PID.TID 0000.0001) >  facetEdgeLink(1:4,3)= 5.4, 2.1, 4.4, 1.1,
(PID.TID 0000.0001) >  facetEdgeLink(1:4,4)= 5.2, 2.3, 0. , 3.3,
(PID.TID 0000.0001) >  facetEdgeLink(1:4,5)= 1.4, 4.1, 0. , 3.1,
(PID.TID 0000.0001) >#-- full 6 facets llc_120 topology (equivalent to default preDefTopol=3):
(PID.TID 0000.0001) ># dimsFacets(1:12) = 120, 360, 120, 360, 120, 120, 360, 120, 360, 120, 120, 120,
(PID.TID 0000.0001) ># facetEdgeLink(1:4,1)= 3.4, 6.1, 2.4, 5.1,
(PID.TID 0000.0001) ># facetEdgeLink(1:4,2)= 3.2, 6.3, 4.2, 1.3,
(PID.TID 0000.0001) ># facetEdgeLink(1:4,3)= 5.4, 2.1, 4.4, 1.1,
(PID.TID 0000.0001) ># facetEdgeLink(1:4,4)= 5.2, 2.3, 6.2, 3.3,
(PID.TID 0000.0001) ># facetEdgeLink(1:4,5)= 1.4, 4.1, 6.4, 3.1,
(PID.TID 0000.0001) ># facetEdgeLink(1:4,6)= 1.2, 4.3, 2.2, 5.3,
(PID.TID 0000.0001) >#
(PID.TID 0000.0001) >#90x30   nprocs = 36
(PID.TID 0000.0001) ># blankList(1:3)=1,10,11,
(PID.TID 0000.0001) >#30x90
(PID.TID 0000.0001) >#
(PID.TID 0000.0001) >#45x30   nprocs = 72
(PID.TID 0000.0001) ># blankList(1:6)=1,2,19,20,21,22
(PID.TID 0000.0001) >#30x45   nprocs = 68
(PID.TID 0000.0001) ># blankList(1:10)=2,3,19,20,21,35,51,60,69,78
(PID.TID 0000.0001) >#45x45   nprocs = 48
(PID.TID 0000.0001) ># blankList(1:4)=2,13,14,23
(PID.TID 0000.0001) >#30x30   nprocs = 96
(PID.TID 0000.0001) >  blankList(1:21)=1,2,3,5,6,28,29,30,31,32,33,49,50,52,53,72,81,90,99,108,117
(PID.TID 0000.0001) >#30x30   nprocs = 112
(PID.TID 0000.0001) ># blankList(1:5)=2,3,28,29,30
(PID.TID 0000.0001) >#15x30   nprocs = 192
(PID.TID 0000.0001) ># blankList(1:42)=1,2,3,4,5,6,9,10,11,12,55,56,57,58,59,60,61,62,63,64,65,66,
(PID.TID 0000.0001) >#            97,98,99,100,103,104,105,106,143,144,
(PID.TID 0000.0001) >#            161,162,179,180,197,198,215,216,233,234
(PID.TID 0000.0001) >#15x15   nprocs = 360
(PID.TID 0000.0001) ># blankList(1:108)=1,2,3,4,5,6,7,8,9,10,11,12,14,15,16,17,18,21,22,23,24,
(PID.TID 0000.0001) >#  65,71,75,76,90,95,96,101,102,109,110,111,112,113,114,115,116,117,118,119,
(PID.TID 0000.0001) >#  120,121,122,123,124,125,126,127,128,129,130,131,132,
(PID.TID 0000.0001) >#  188,189,190,193,194,195,196,199,
(PID.TID 0000.0001) >#  200,201,202,203,205,206,207,208,209,211,212,213,214,215,216,242,247,253,
(PID.TID 0000.0001) >#  267,268,269,270,287,288,305,306,323,324,341,342,359,360,362,376,377,378,
(PID.TID 0000.0001) >#  380,381,382,395,396,400,412,413,414,430,
(PID.TID 0000.0001) >#note: it seems that 8 of the followig 9 tiles could be added to 15x15 blank
(PID.TID 0000.0001) >#  list to reach 352=22*16 cores : 431 432 440 441 448 449 450 467 468
(PID.TID 0000.0001) > &
(PID.TID 0000.0001) 
(PID.TID 0000.0001) W2_READPARMS: finished reading data.exch2
(PID.TID 0000.0001) W2_useE2ioLayOut=    T ;/* T: use Exch2 glob IO map; F: use model default */
(PID.TID 0000.0001) W2_mapIO        =   1 ; /* select option for Exch2 global-IO map */
(PID.TID 0000.0001) W2_printMsg     =   0 ; /* select option for printing information */
(PID.TID 0000.0001) ===== Start setting W2 TOPOLOGY:
(PID.TID 0000.0001) W2_E2SETUP: number of Active Tiles =      96
(PID.TID 0000.0001) W2_E2SETUP: number of Blank Tiles  =      21
(PID.TID 0000.0001) W2_E2SETUP: Total number of Tiles  =     117
(PID.TID 0000.0001) W2_SET_GEN_FACETS: preDefTopol=  0 selected
(PID.TID 0000.0001) W2_SET_GEN_FACETS: Number of facets =  5 (inferred from "dimsFacets")
(PID.TID 0000.0001) W2_E2SETUP: Total number of Facets =       5
(PID.TID 0000.0001) W2_SET_F2F_INDEX: index matrix for connected Facet-Edges:
(PID.TID 0000.0001) ** WARNING ** S.Edge of facet #  1 disconnected (facet_link=  0.00)
(PID.TID 0000.0001) ** WARNING ** S.Edge of facet #  2 disconnected (facet_link=  0.00)
(PID.TID 0000.0001) ** WARNING ** E.Edge of facet #  4 disconnected (facet_link=  0.00)
(PID.TID 0000.0001) ** WARNING ** E.Edge of facet #  5 disconnected (facet_link=  0.00)
(PID.TID 0000.0001) W2_SET_MAP_TILES: tile mapping within facet and global Map:
(PID.TID 0000.0001)  W2_mapIO =   90 (=    3*sNx)
(PID.TID 0000.0001)  Global Map (IO): X-size=      90 , Y-size=    1170
(PID.TID 0000.0001) W2_SET_MAP_TILES: tile offset within facet and global Map:
- facet  1 : X-size=    90 , Y-size=   270 ;   27 tiles (Tx,Ty=   3,   9)
- facet  2 : X-size=    90 , Y-size=   270 ;   27 tiles (Tx,Ty=   3,   9)
- facet  3 : X-size=    90 , Y-size=    90 ;    9 tiles (Tx,Ty=   3,   3)
- facet  4 : X-size=   270 , Y-size=    90 ;   27 tiles (Tx,Ty=   9,   3)
- facet  5 : X-size=   270 , Y-size=    90 ;   27 tiles (Tx,Ty=   9,   3)
(PID.TID 0000.0001) W2_SET_MAP_CUMSUM: setting Facet Matrix for CUMUL-SUM
(PID.TID 0000.0001) W2_SET_MAP_CUMSUM: set    4 /   5 active facets (pass,type=   1, 1)
 Facet Matrix for CUMUL-SUM (nFacets=   5, nActive=   5 ):
- facet  1 :  0  0 ,  0  0 ,  0  0 ,  0  0 ,  0  0 ,
- facet  2 :  1  0 ,  0  0 ,  0  0 ,  0  0 ,  0  0 ,
- facet  3 :  1  0 ,  0  1 ,  0  0 ,  0  0 ,  0  0 ,
- facet  4 :  1  0 ,  0  1 ,  1  0 ,  0  0 ,  0  0 ,
- facet  5 :  1  0 ,  0  1 ,  1  0 ,  0  1 ,  0  0 ,
 missing-corner Tile for CUMUL-SUM (nTiles=   117 ): W2_tMC1=    25 , W2_tMC2=     0
(PID.TID 0000.0001) W2_SET_MAP_CUMSUM: done (skip Tile Matrix setting)
(PID.TID 0000.0001) W2_SET_TILE2TILES: tile neighbours and index connection:
(PID.TID 0000.0001) current Max.Nb.Neighbours (e.g., on tile    7 ) =  4
(PID.TID 0000.0001) ===== W2 TILE TOPOLOGY =====
(PID.TID 0000.0001)  TILE:     4 (bi,bj=   1   1 ), Nb of Neighbours =  2
(PID.TID 0000.0001)     NEIGHBOUR  1 = TILE    7 (n=  2) Comm = MSG (PROC=    2)
(PID.TID 0000.0001)     NEIGHBOUR  2 = TILE  116 (n=  1) Comm = MSG (PROC=   96)
(PID.TID 0000.0001) =====       setting W2 TOPOLOGY: Done
(PID.TID 0000.0001) 
(PID.TID 0000.0001)  INI_PARMS: opening model parameter file "data"
(PID.TID 0000.0001)  OPEN_COPY_DATA_FILE: opening file data
(PID.TID 0000.0001) // =======================================================
(PID.TID 0000.0001) // Parameter file "data"
(PID.TID 0000.0001) // =======================================================
(PID.TID 0000.0001) ># ====================
(PID.TID 0000.0001) ># | Model parameters |
(PID.TID 0000.0001) ># ====================
(PID.TID 0000.0001) >#
(PID.TID 0000.0001) ># Continuous equation parameters
(PID.TID 0000.0001) > &PARM01
(PID.TID 0000.0001) > tRef               = 3*23.,3*22.,21.,2*20.,19.,2*18.,17.,2*16.,15.,14.,13.,
(PID.TID 0000.0001) >                      12.,11.,2*9.,8.,7.,2*6.,2*5.,3*4.,3*3.,4*2.,12*1.,
(PID.TID 0000.0001) > sRef               = 50*34.5,
(PID.TID 0000.0001) > viscAr= 5.6614e-04,
(PID.TID 0000.0001) > no_slip_sides = .TRUE.,
(PID.TID 0000.0001) > no_slip_bottom = .TRUE.,
(PID.TID 0000.0001) > diffKrT=5.44e-7,
(PID.TID 0000.0001) > diffKrS=5.44e-7,
(PID.TID 0000.0001) > rhonil=1027.5,
(PID.TID 0000.0001) > rhoConstFresh=999.8,
(PID.TID 0000.0001) > eosType='JMD95Z',
(PID.TID 0000.0001) > hFacMin=0.3,
(PID.TID 0000.0001) > hFacInf=0.1,
(PID.TID 0000.0001) > hFacSup=5.,
(PID.TID 0000.0001) > implicitDiffusion=.TRUE.,
(PID.TID 0000.0001) > implicitViscosity=.TRUE.,
(PID.TID 0000.0001) > viscC4Leith=2.15,
(PID.TID 0000.0001) > viscC4Leithd=2.15,
(PID.TID 0000.0001) > viscA4GridMax=0.8,
(PID.TID 0000.0001) > useAreaViscLength=.TRUE.,
(PID.TID 0000.0001) > highOrderVorticity  = .TRUE.,
(PID.TID 0000.0001) > bottomDragQuadratic = 0.0021,
(PID.TID 0000.0001) > tempAdvScheme=7,
(PID.TID 0000.0001) > saltAdvScheme=7,
(PID.TID 0000.0001) > StaggerTimeStep=.TRUE.,
(PID.TID 0000.0001) > multiDimAdvection=.TRUE.,
(PID.TID 0000.0001) > vectorInvariantMomentum=.TRUE.,
(PID.TID 0000.0001) > implicitFreeSurface=.TRUE.,
(PID.TID 0000.0001) > exactConserv=.TRUE.,
(PID.TID 0000.0001) ># debuglevel=-1,
(PID.TID 0000.0001) > convertFW2Salt=-1.,
(PID.TID 0000.0001) > useRealFreshWaterFlux=.TRUE.,
(PID.TID 0000.0001) > useSingleCPUio=.FALSE.,
(PID.TID 0000.0001) > useSingleCpuInput=.TRUE.,
(PID.TID 0000.0001) > globalFiles=.TRUE.,
(PID.TID 0000.0001) > readBinaryPrec=32,
(PID.TID 0000.0001) > writeBinaryPrec=32,
(PID.TID 0000.0001) > temp_EvPrRn=0.,
(PID.TID 0000.0001) > implicSurfPress = 0.6,
(PID.TID 0000.0001) > implicDiv2DFlow = 0.6,
(PID.TID 0000.0001) > /
(PID.TID 0000.0001) >
(PID.TID 0000.0001) ># Elliptic solver parameters
(PID.TID 0000.0001) > &PARM02
(PID.TID 0000.0001) > cg2dMaxIters = 100,
(PID.TID 0000.0001) > cg2dTargetResidual = 1.E-5,
(PID.TID 0000.0001) > &
(PID.TID 0000.0001) >
(PID.TID 0000.0001) ># Time stepping parameters
(PID.TID 0000.0001) > &PARM03
(PID.TID 0000.0001) > nIter0=1,
(PID.TID 0000.0001) >  nTimeSteps       = 96,
(PID.TID 0000.0001) > deltaT=900.,
(PID.TID 0000.0001) > abEps = 0.1,
(PID.TID 0000.0001) > forcing_In_AB=.FALSE.,
(PID.TID 0000.0001) > momDissip_In_AB=.FALSE.,
(PID.TID 0000.0001) >  chkptFreq        = 86400.0,
(PID.TID 0000.0001) > dumpfreq = 3600.,
(PID.TID 0000.0001) > dumpInitAndLast=.FALSE.,
(PID.TID 0000.0001) > monitorFreq = 7200.0,
(PID.TID 0000.0001) > &
(PID.TID 0000.0001) >
(PID.TID 0000.0001) ># Gridding parameters
(PID.TID 0000.0001) > &PARM04
(PID.TID 0000.0001) > usingCurvilinearGrid=.TRUE.,
(PID.TID 0000.0001) > delR =
(PID.TID 0000.0001) >     10.00, 10.00, 10.00, 10.00, 10.00, 10.00, 10.00, 10.01,
(PID.TID 0000.0001) >     10.03, 10.11, 10.32, 10.80, 11.76, 13.42, 16.04, 19.82, 24.85,
(PID.TID 0000.0001) >     31.10, 38.42, 46.50, 55.00, 63.50, 71.58, 78.90, 85.15, 90.18,
(PID.TID 0000.0001) >     93.96, 96.58, 98.25, 99.25,100.01,101.33,104.56,111.33,122.83,
(PID.TID 0000.0001) >     139.09,158.94,180.83,203.55,226.50,249.50,272.50,295.50,318.50,
(PID.TID 0000.0001) >     341.50,364.50,387.50,410.50,433.50,456.50,
(PID.TID 0000.0001) > &
(PID.TID 0000.0001) >
(PID.TID 0000.0001) ># Input datasets
(PID.TID 0000.0001) > &PARM05
(PID.TID 0000.0001) > bathyFile      ='bathy.bin',
(PID.TID 0000.0001) > &
(PID.TID 0000.0001) 
(PID.TID 0000.0001)  INI_PARMS ; starts to read PARM01
(PID.TID 0000.0001)  INI_PARMS ; read PARM01 : OK
(PID.TID 0000.0001)  INI_PARMS ; starts to read PARM02
(PID.TID 0000.0001)  INI_PARMS ; read PARM02 : OK
(PID.TID 0000.0001)  INI_PARMS ; starts to read PARM03
(PID.TID 0000.0001)  INI_PARMS ; read PARM03 : OK
(PID.TID 0000.0001)  INI_PARMS ; starts to read PARM04
(PID.TID 0000.0001)  INI_PARMS ; read PARM04 : OK
(PID.TID 0000.0001)  INI_PARMS ; starts to read PARM05
(PID.TID 0000.0001)  INI_PARMS ; read PARM05 : OK
(PID.TID 0000.0001)  INI_PARMS: finished reading file "data"
(PID.TID 0000.0001)  PACKAGES_BOOT: opening data.pkg
(PID.TID 0000.0001)  OPEN_COPY_DATA_FILE: opening file data.pkg
(PID.TID 0000.0001) // =======================================================
(PID.TID 0000.0001) // Parameter file "data.pkg"
(PID.TID 0000.0001) // =======================================================
(PID.TID 0000.0001) ># Packages
(PID.TID 0000.0001) > &PACKAGES
(PID.TID 0000.0001) > useKPP         = .TRUE.,
(PID.TID 0000.0001) > useFRAZIL      = .TRUE.,
(PID.TID 0000.0001) > /
(PID.TID 0000.0001) 
(PID.TID 0000.0001)  PACKAGES_BOOT: finished reading data.pkg
(PID.TID 0000.0001)  PACKAGES_BOOT: On/Off package Summary
 --------  pkgs with a standard "usePKG" On/Off switch in "data.pkg":  --------
 pkg/kpp                  compiled   and   used ( useKPP                   = T )
 pkg/frazil               compiled   and   used ( useFRAZIL                = T )
 -------- pkgs without standard "usePKG" On/Off switch in "data.pkg":  --------
 pkg/generic_advdiff      compiled   and   used ( useGAD                   = T )
 pkg/mom_common           compiled   and   used ( momStepping              = T )
 pkg/mom_vecinv           compiled   and   used ( +vectorInvariantMomentum = T )
 pkg/mom_fluxform         compiled but not used ( & not vectorInvariantMom = F )
 pkg/monitor              compiled   and   used ( monitorFreq > 0.         = T )
 pkg/debug                compiled but not used ( debugMode                = F )
 pkg/exch2                compiled   and   used
 pkg/rw                   compiled   and   used
 pkg/mdsio                compiled   and   used
(PID.TID 0000.0001)  PACKAGES_BOOT: End of package Summary
(PID.TID 0000.0001) 
(PID.TID 0000.0001)  KPP_INIT: opening data.kpp
(PID.TID 0000.0001)  OPEN_COPY_DATA_FILE: opening file data.kpp
(PID.TID 0000.0001) // =======================================================
(PID.TID 0000.0001) // Parameter file "data.kpp"
(PID.TID 0000.0001) // =======================================================
(PID.TID 0000.0001) ># KPP parameters
(PID.TID 0000.0001) > &KPP_PARM01
(PID.TID 0000.0001) > KPPmixingMaps   = .FALSE.,
(PID.TID 0000.0001) > KPPwriteState   = .FALSE.,
(PID.TID 0000.0001) > kpp_dumpFreq    = 0.,
(PID.TID 0000.0001) > kpp_tavefreq    = 0.,
(PID.TID 0000.0001) > Ricr            = 0.3559,
(PID.TID 0000.0001) > Riinfty         = 0.6998,
(PID.TID 0000.0001) > &
(PID.TID 0000.0001) 
(PID.TID 0000.0001)  KPP_INIT: finished reading data.kpp
(PID.TID 0000.0001) SET_PARMS: done
(PID.TID 0000.0001) Enter INI_VERTICAL_GRID: setInterFDr=    T ; setCenterDr=    F
(PID.TID 0000.0001) tile:   4 ; Read from file tile001.mitgrid
(PID.TID 0000.0001)   => xC yC dxF dyF rA xG yG dxV dyU rAz dxC dyC rAw rAs dxG dyG
(PID.TID 0000.0001) %MON XC_max                       =   1.7997758946678E+02
(PID.TID 0000.0001) %MON XC_min                       =  -1.7998895680928E+02
(PID.TID 0000.0001) %MON XC_mean                      =  -6.8997670631350E+00
(PID.TID 0000.0001) %MON XC_sd                        =   1.0548127462941E+02
(PID.TID 0000.0001) %MON XG_max                       =   1.8000000000000E+02
(PID.TID 0000.0001) %MON XG_min                       =  -1.7999919444240E+02
(PID.TID 0000.0001) %MON XG_mean                      =  -6.3521159278861E+00
(PID.TID 0000.0001) %MON XG_sd                        =   1.0549598176576E+02
(PID.TID 0000.0001) %MON DXC_max                      =   1.1117680031365E+05
(PID.TID 0000.0001) %MON DXC_min                      =   1.3362789164732E+04
(PID.TID 0000.0001) %MON DXC_mean                     =   7.1345115143606E+04
(PID.TID 0000.0001) %MON DXC_sd                       =   2.6107013089865E+04
(PID.TID 0000.0001) %MON DXF_max                      =   1.1117680031365E+05
(PID.TID 0000.0001) %MON DXF_min                      =   1.3491575949394E+04
(PID.TID 0000.0001) %MON DXF_mean                     =   7.1334806791260E+04
(PID.TID 0000.0001) %MON DXF_sd                       =   2.6121349328995E+04
(PID.TID 0000.0001) %MON DXG_max                      =   1.1117747335204E+05
(PID.TID 0000.0001) %MON DXG_min                      =   1.0930409249570E+04
(PID.TID 0000.0001) %MON DXG_mean                     =   7.1313583950284E+04
(PID.TID 0000.0001) %MON DXG_sd                       =   2.6131714747840E+04
(PID.TID 0000.0001) %MON DXV_max                      =   1.1117747335204E+05
(PID.TID 0000.0001) %MON DXV_min                      =   9.4742518926426E+03
(PID.TID 0000.0001) %MON DXV_mean                     =   7.1323777998314E+04
(PID.TID 0000.0001) %MON DXV_sd                       =   2.6117603792432E+04
(PID.TID 0000.0001) %MON YC_max                       =   8.9739397429324E+01
(PID.TID 0000.0001) %MON YC_min                       =  -8.1637173529390E+01
(PID.TID 0000.0001) %MON YC_mean                      =  -5.9338515025079E-01
(PID.TID 0000.0001) %MON YC_sd                        =   5.1058908630085E+01
(PID.TID 0000.0001) %MON YG_max                       =   9.0000000000000E+01
(PID.TID 0000.0001) %MON YG_min                       =  -8.1805478609906E+01
(PID.TID 0000.0001) %MON YG_mean                      =  -5.7357831765458E-01
(PID.TID 0000.0001) %MON YG_sd                        =   5.1060174609345E+01
(PID.TID 0000.0001) %MON DYC_max                      =   1.1117680031365E+05
(PID.TID 0000.0001) %MON DYC_min                      =   1.3362789164732E+04
(PID.TID 0000.0001) %MON DYC_mean                     =   7.0982792089666E+04
(PID.TID 0000.0001) %MON DYC_sd                       =   2.6607387075348E+04
(PID.TID 0000.0001) %MON DYF_max                      =   1.1117680031365E+05
(PID.TID 0000.0001) %MON DYF_min                      =   1.3491575949394E+04
(PID.TID 0000.0001) %MON DYF_mean                     =   7.1000127494934E+04
(PID.TID 0000.0001) %MON DYF_sd                       =   2.6603606017547E+04
(PID.TID 0000.0001) %MON DYG_max                      =   1.1117747335204E+05
(PID.TID 0000.0001) %MON DYG_min                      =   1.0930409249570E+04
(PID.TID 0000.0001) %MON DYG_mean                     =   7.1022116512585E+04
(PID.TID 0000.0001) %MON DYG_sd                       =   2.6571715830406E+04
(PID.TID 0000.0001) %MON DYU_max                      =   1.1117747335204E+05
(PID.TID 0000.0001) %MON DYU_min                      =   9.4742518926426E+03
(PID.TID 0000.0001) %MON DYU_mean                     =   7.1004694583927E+04
(PID.TID 0000.0001) %MON DYU_sd                       =   2.6575655787476E+04
(PID.TID 0000.0001) %MON RA_max                       =   1.1896090857160E+10
(PID.TID 0000.0001) %MON RA_min                       =   2.1263387742345E+08
(PID.TID 0000.0001) %MON RA_mean                      =   5.6344293572480E+09
(PID.TID 0000.0001) %MON RA_sd                        =   3.5929461176606E+09
(PID.TID 0000.0001) %MON RAW_max                      =   1.1896090856781E+10
(PID.TID 0000.0001) %MON RAW_min                      =   1.7369571508711E+08
(PID.TID 0000.0001) %MON RAW_mean                     =   5.6355850434318E+09
(PID.TID 0000.0001) %MON RAW_sd                       =   3.5915487677190E+09
(PID.TID 0000.0001) %MON RAS_max                      =   1.1896090856781E+10
(PID.TID 0000.0001) %MON RAS_min                      =   1.7369571508711E+08
(PID.TID 0000.0001) %MON RAS_mean                     =   5.6320332286162E+09
(PID.TID 0000.0001) %MON RAS_sd                       =   3.5937184228135E+09
(PID.TID 0000.0001) %MON RAZ_max                      =   1.1891903479271E+10
(PID.TID 0000.0001) %MON RAZ_min                      =   1.0413402423292E+08
(PID.TID 0000.0001) %MON RAZ_mean                     =   5.6331824674695E+09
(PID.TID 0000.0001) %MON RAZ_sd                       =   3.5923307220197E+09
(PID.TID 0000.0001) %MON AngleCS_max                  =   1.0000000000000E+00
(PID.TID 0000.0001) %MON AngleCS_min                  =  -9.9996641938864E-01
(PID.TID 0000.0001) %MON AngleCS_mean                 =   4.0572930529500E-01
(PID.TID 0000.0001) %MON AngleCS_sd                   =   5.3874397836718E-01
(PID.TID 0000.0001) %MON AngleSN_max                  =   9.9996641938864E-01
(PID.TID 0000.0001) %MON AngleSN_min                  =  -1.0000000000000E+00
(PID.TID 0000.0001) %MON AngleSN_mean                 =  -4.9986154624599E-01
(PID.TID 0000.0001) %MON AngleSN_sd                   =   5.4339404779819E-01
(PID.TID 0000.0001)  MDS_READ_FIELD: opening global file: bathy.bin
(PID.TID 0000.0001) // =======================================================
(PID.TID 0000.0001) // Field Model R_low (ini_masks_etc)
(PID.TID 0000.0001) // CMIN =         -4.957150000000000E+03
(PID.TID 0000.0001) // CMAX =         -1.998999977111816E+01
(PID.TID 0000.0001) // CINT =          1.828577777862549E+02
(PID.TID 0000.0001) // SYMBOLS (CMIN->CMAX): -abcdefghijklmnopqrstuvwxyz+
(PID.TID 0000.0001) //                  0.0: .
(PID.TID 0000.0001) // RANGE I (Lo:Hi:Step):(    -7:    38:     1)
(PID.TID 0000.0001) // RANGE J (Lo:Hi:Step):(    38:    -7:    -1)
(PID.TID 0000.0001) // RANGE K (Lo:Hi:Step):(   1:   1:   1)
(PID.TID 0000.0001) // =======================================================
(PID.TID 0000.0001) K =   1
(PID.TID 0000.0001) //                I=2       I=12      I=22      I=32
(PID.TID 0000.0001) // |--J--|765432101|345678901|345678901|345678901|345678
(PID.TID 0000.0001) //     38 eeedddcccbbbbbbbbaaaaaaaa--aaaaa---aaaaaabbcbb
(PID.TID 0000.0001) //     37 feeddddcccbbbbbbbbaaaaaaaaaaaaaaa-aaaaaaabcccb
(PID.TID 0000.0001) //     36 gfeeddddcccccbbbbbaaaaaaaaaaaaaaaaaabccbcdddcc
(PID.TID 0000.0001) //     35 gfeeedddccccccbbbbaaaaaaaaaaaaaaaaabdeffeefedd
(PID.TID 0000.0001) //     34 ffeeeedddcccccbbbbbaaaaaaaaaaaaaaabcefhkkhgggg
(PID.TID 0000.0001) //     33 gffeeeddddcccccbbbbbaaaaaaaaaaaaabcdfgilmliijk
(PID.TID 0000.0001) //     32 gffffeeddddcccccbbbbbbbbbbbbbaaaabdgijklnmlklp
(PID.TID 0000.0001) //     31 ggggffeeddddcccccbbbbbbbbbbbbbaabehlnn........
(PID.TID 0000.0001) //     30 hggggfeeedddddcccccccccccbbbbbbcgknpr.........
(PID.TID 0000.0001) //     29 ihhggffeeeeeddddcccccccccccccdfimpr...........
(PID.TID 0000.0001) //     28 jjihggfffffeeeddddddddddcccdfilnqu............
(PID.TID 0000.0001) //     27 llkjihggggggffeeeeeeeedddddfjnqyy.............
(PID.TID 0000.0001) //     26 onlljihhgggggggffefffeeeeeginsyy..............
(PID.TID 0000.0001) //     25 rqonlkjiihhhghhgfffggfffghjouz................
(PID.TID 0000.0001) //     24 utrpomlkjiihhhhhggghhghijl+...................
(PID.TID 0000.0001) //     23 wvusqpnmlkkjjjjiiiiiijlnqz....................
(PID.TID 0000.0001) //     22 xxwvtsrponmllmmlllkkknsxz.....................
(PID.TID 0000.0001) //     21 yxxxwwvusqpqrsrqonmmny+z......................
(PID.TID 0000.0001) //     20 yyyyyyyxxwvwwwwvusrwx.........................
(PID.TID 0000.0001) //     19 yyyyyyyyyyyxxxxxxxyyx.........................
(PID.TID 0000.0001) //     18 yyyyyyyyyyxxxxxxyyyyy.........................
(PID.TID 0000.0001) //     17 yyyyyyyyyxxxwwxxyyy...........................
(PID.TID 0000.0001) //     16 yyyyyyyyxxwwwwxyyyz...........................
(PID.TID 0000.0001) //     15 yyyyyyyxwwwvwxyyz.............................
(PID.TID 0000.0001) //     14 yyyyyxxwwvvvxyz...............................
(PID.TID 0000.0001) //     13 zyyyyxwwvvvwy.................................
(PID.TID 0000.0001) //     12 zzyyxxwvuuvx..................................
(PID.TID 0000.0001) //     11 ++zyyxwvuvw...................................
(PID.TID 0000.0001) //     10 ..............................................
(PID.TID 0000.0001) //      9 ..............................................
(PID.TID 0000.0001) //      8 ..............................................
(PID.TID 0000.0001) //      7 ..............................................
(PID.TID 0000.0001) //      6 ..............................................
(PID.TID 0000.0001) //      5 ..............................................
(PID.TID 0000.0001) //      4 ..............................................
(PID.TID 0000.0001) //      3 ..............................................
(PID.TID 0000.0001) //      2 ..............................................
(PID.TID 0000.0001) //      1 ..............................................
(PID.TID 0000.0001) //      0 ..............................................
(PID.TID 0000.0001) //     -1 ..............................................
(PID.TID 0000.0001) //     -2 ..............................................
(PID.TID 0000.0001) //     -3 ..............................................
(PID.TID 0000.0001) //     -4 ..............................................
(PID.TID 0000.0001) //     -5 ..............................................
(PID.TID 0000.0001) //     -6 ..............................................
(PID.TID 0000.0001) //     -7 ..............................................
(PID.TID 0000.0001) // =======================================================
(PID.TID 0000.0001) // END OF FIELD                                          =
(PID.TID 0000.0001) // =======================================================
(PID.TID 0000.0001) 
(PID.TID 0000.0001) // =======================================================
(PID.TID 0000.0001) // Field Model Ro_surf (ini_masks_etc)
(PID.TID 0000.0001) // CMIN =          1.000000000000000E+32
(PID.TID 0000.0001) // CMAX =         -1.000000000000000E+32
(PID.TID 0000.0001) // CINT =          0.000000000000000E+00
(PID.TID 0000.0001) // SYMBOLS (CMIN->CMAX): -abcdefghijklmnopqrstuvwxyz+
(PID.TID 0000.0001) //                  0.0: .
(PID.TID 0000.0001) // RANGE I (Lo:Hi:Step):(    -7:    38:     1)
(PID.TID 0000.0001) // RANGE J (Lo:Hi:Step):(    38:    -7:    -1)
(PID.TID 0000.0001) // RANGE K (Lo:Hi:Step):(   1:   1:   1)
(PID.TID 0000.0001) // =======================================================
(PID.TID 0000.0001) // =======================================================
(PID.TID 0000.0001) // END OF FIELD                                          =
(PID.TID 0000.0001) // =======================================================
(PID.TID 0000.0001) 
(PID.TID 0000.0001) // =======================================================
(PID.TID 0000.0001) // Field hFacC at iteration          0
(PID.TID 0000.0001) // CMIN =          1.000000000000000E+00
(PID.TID 0000.0001) // CMAX =          1.000000000000000E+00
(PID.TID 0000.0001) // CINT =          0.000000000000000E+00
(PID.TID 0000.0001) // SYMBOLS (CMIN->CMAX): -abcdefghijklmnopqrstuvwxyz+
(PID.TID 0000.0001) //                  0.0: .
(PID.TID 0000.0001) // RANGE I (Lo:Hi:Step):(    -7:    38:     1)
(PID.TID 0000.0001) // RANGE J (Lo:Hi:Step):(    38:    -7:    -1)
(PID.TID 0000.0001) // RANGE K (Lo:Hi:Step):(   1:   1:   1)
(PID.TID 0000.0001) // =======================================================
(PID.TID 0000.0001) // =======================================================
(PID.TID 0000.0001) // END OF FIELD                                          =
(PID.TID 0000.0001) // =======================================================
(PID.TID 0000.0001) 
(PID.TID 0000.0001) // =======================================================
(PID.TID 0000.0001) // Field hFacW at iteration          0
(PID.TID 0000.0001) // CMIN =          1.000000000000000E+00
(PID.TID 0000.0001) // CMAX =          1.000000000000000E+00
(PID.TID 0000.0001) // CINT =          0.000000000000000E+00
(PID.TID 0000.0001) // SYMBOLS (CMIN->CMAX): -abcdefghijklmnopqrstuvwxyz+
(PID.TID 0000.0001) //                  0.0: .
(PID.TID 0000.0001) // RANGE I (Lo:Hi:Step):(    -7:    38:     1)
(PID.TID 0000.0001) // RANGE J (Lo:Hi:Step):(    38:    -7:    -1)
(PID.TID 0000.0001) // RANGE K (Lo:Hi:Step):(   1:   1:   1)
(PID.TID 0000.0001) // =======================================================
(PID.TID 0000.0001) // =======================================================
(PID.TID 0000.0001) // END OF FIELD                                          =
(PID.TID 0000.0001) // =======================================================
(PID.TID 0000.0001) 
(PID.TID 0000.0001) // =======================================================
(PID.TID 0000.0001) // Field hFacS at iteration          0
(PID.TID 0000.0001) // CMIN =          1.000000000000000E+00
(PID.TID 0000.0001) // CMAX =          1.000000000000000E+00
(PID.TID 0000.0001) // CINT =          0.000000000000000E+00
(PID.TID 0000.0001) // SYMBOLS (CMIN->CMAX): -abcdefghijklmnopqrstuvwxyz+
(PID.TID 0000.0001) //                  0.0: .
(PID.TID 0000.0001) // RANGE I (Lo:Hi:Step):(    -7:    38:     1)
(PID.TID 0000.0001) // RANGE J (Lo:Hi:Step):(    38:    -7:    -1)
(PID.TID 0000.0001) // RANGE K (Lo:Hi:Step):(   1:   1:   1)
(PID.TID 0000.0001) // =======================================================
(PID.TID 0000.0001) // =======================================================
(PID.TID 0000.0001) // END OF FIELD                                          =
(PID.TID 0000.0001) // =======================================================
(PID.TID 0000.0001) 
(PID.TID 0000.0001) GAD_INIT_FIXED: GAD_OlMinSize=  4  0  2
(PID.TID 0000.0001) 
(PID.TID 0000.0001) // ===================================
(PID.TID 0000.0001) // GAD parameters :
(PID.TID 0000.0001) // ===================================
(PID.TID 0000.0001) tempAdvScheme =   /* Temp. Horiz.Advection scheme selector */
(PID.TID 0000.0001)                       7
(PID.TID 0000.0001)     ;
(PID.TID 0000.0001) tempVertAdvScheme =   /* Temp. Vert. Advection scheme selector */
(PID.TID 0000.0001)                       7
(PID.TID 0000.0001)     ;
(PID.TID 0000.0001) tempMultiDimAdvec =   /* use Muti-Dim Advec method for Temp */
(PID.TID 0000.0001)                   T
(PID.TID 0000.0001)     ;
(PID.TID 0000.0001) tempSOM_Advection = /* use 2nd Order Moment Advection for Temp */
(PID.TID 0000.0001)                   F
(PID.TID 0000.0001)     ;
(PID.TID 0000.0001) AdamsBashforthGt = /* apply Adams-Bashforth extrapolation on Gt */
(PID.TID 0000.0001)                   F
(PID.TID 0000.0001)     ;
(PID.TID 0000.0001) AdamsBashforth_T = /* apply Adams-Bashforth extrapolation on Temp */
(PID.TID 0000.0001)                   F
(PID.TID 0000.0001)     ;
(PID.TID 0000.0001) saltAdvScheme =   /* Salt. Horiz.advection scheme selector */
(PID.TID 0000.0001)                       7
(PID.TID 0000.0001)     ;
(PID.TID 0000.0001) saltVertAdvScheme =   /* Salt. Vert. Advection scheme selector */
(PID.TID 0000.0001)                       7
(PID.TID 0000.0001)     ;
(PID.TID 0000.0001) saltMultiDimAdvec =   /* use Muti-Dim Advec method for Salt */
(PID.TID 0000.0001)                   T
(PID.TID 0000.0001)     ;
(PID.TID 0000.0001) saltSOM_Advection = /* use 2nd Order Moment Advection for Salt */
(PID.TID 0000.0001)                   F
(PID.TID 0000.0001)     ;
(PID.TID 0000.0001) AdamsBashforthGs = /* apply Adams-Bashforth extrapolation on Gs */
(PID.TID 0000.0001)                   F
(PID.TID 0000.0001)     ;
(PID.TID 0000.0001) AdamsBashforth_S = /* apply Adams-Bashforth extrapolation on Salt */
(PID.TID 0000.0001)                   F
(PID.TID 0000.0001)     ;
(PID.TID 0000.0001) // ===================================
(PID.TID 0000.0001) INI_GLOBAL_DOMAIN: Found   0 CS-corner Pts in the domain
(PID.TID 0000.0001) %MON fCori_max                    =   1.4584096177006E-04
(PID.TID 0000.0001) %MON fCori_min                    =  -1.4429171327635E-04
(PID.TID 0000.0001) %MON fCori_mean                   =  -1.9531894197173E-06
(PID.TID 0000.0001) %MON fCori_sd                     =   1.0434730642309E-04
(PID.TID 0000.0001) %MON fCoriG_max                   =   1.4584247033981E-04
(PID.TID 0000.0001) %MON fCoriG_min                   =  -1.4435339896041E-04
(PID.TID 0000.0001) %MON fCoriG_mean                  =  -1.9303770726087E-06
(PID.TID 0000.0001) %MON fCoriG_sd                    =   1.0435958182593E-04
(PID.TID 0000.0001) %MON fCoriCos_max                 =   1.4584158744890E-04
(PID.TID 0000.0001) %MON fCoriCos_min                 =   6.6334365221135E-07
(PID.TID 0000.0001) %MON fCoriCos_mean                =   9.3876998486639E-05
(PID.TID 0000.0001) %MON fCoriCos_sd                  =   3.9559575367967E-05
(PID.TID 0000.0001) INI_CG2D: CG2D normalisation factor =  1.9867335911142027E-04
(PID.TID 0000.0001) 
(PID.TID 0000.0001) // =======================================================
(PID.TID 0000.0001) // Model configuration
(PID.TID 0000.0001) // =======================================================
(PID.TID 0000.0001) //
(PID.TID 0000.0001) // "Physical" paramters ( PARM01 in namelist )
(PID.TID 0000.0001) //
(PID.TID 0000.0001) buoyancyRelation = /* Type of relation to get Buoyancy */
(PID.TID 0000.0001)               'OCEANIC'
(PID.TID 0000.0001)     ;
(PID.TID 0000.0001) fluidIsAir   =  /* fluid major constituent is Air */
(PID.TID 0000.0001)                   F
(PID.TID 0000.0001)     ;
(PID.TID 0000.0001) fluidIsWater =  /* fluid major constituent is Water */
(PID.TID 0000.0001)                   T
(PID.TID 0000.0001)     ;
(PID.TID 0000.0001) usingPCoords =  /* use p (or p*) vertical coordinate */
(PID.TID 0000.0001)                   F
(PID.TID 0000.0001)     ;
(PID.TID 0000.0001) usingZCoords =  /* use z (or z*) vertical coordinate */
(PID.TID 0000.0001)                   T
(PID.TID 0000.0001)     ;
(PID.TID 0000.0001) tRef =   /* Reference temperature profile ( oC or K ) */
(PID.TID 0000.0001)     3 @  2.300000000000000E+01,             /* K =  1:  3 */
(PID.TID 0000.0001)     3 @  2.200000000000000E+01,             /* K =  4:  6 */
(PID.TID 0000.0001)                 2.100000000000000E+01,      /* K =  7 */
(PID.TID 0000.0001)     2 @  2.000000000000000E+01,             /* K =  8:  9 */
(PID.TID 0000.0001)                 1.900000000000000E+01,      /* K = 10 */
(PID.TID 0000.0001)     2 @  1.800000000000000E+01,             /* K = 11: 12 */
(PID.TID 0000.0001)                 1.700000000000000E+01,      /* K = 13 */
(PID.TID 0000.0001)     2 @  1.600000000000000E+01,             /* K = 14: 15 */
(PID.TID 0000.0001)                 1.500000000000000E+01,      /* K = 16 */
(PID.TID 0000.0001)                 1.400000000000000E+01,      /* K = 17 */
(PID.TID 0000.0001)                 1.300000000000000E+01,      /* K = 18 */
(PID.TID 0000.0001)                 1.200000000000000E+01,      /* K = 19 */
(PID.TID 0000.0001)                 1.100000000000000E+01,      /* K = 20 */
(PID.TID 0000.0001)     2 @  9.000000000000000E+00,             /* K = 21: 22 */
(PID.TID 0000.0001)                 8.000000000000000E+00,      /* K = 23 */
(PID.TID 0000.0001)                 7.000000000000000E+00,      /* K = 24 */
(PID.TID 0000.0001)     2 @  6.000000000000000E+00,             /* K = 25: 26 */
(PID.TID 0000.0001)     2 @  5.000000000000000E+00,             /* K = 27: 28 */
(PID.TID 0000.0001)     3 @  4.000000000000000E+00,             /* K = 29: 31 */
(PID.TID 0000.0001)     3 @  3.000000000000000E+00,             /* K = 32: 34 */
(PID.TID 0000.0001)     4 @  2.000000000000000E+00,             /* K = 35: 38 */
(PID.TID 0000.0001)    12 @  1.000000000000000E+00              /* K = 39: 50 */
(PID.TID 0000.0001)     ;
(PID.TID 0000.0001) sRef =   /* Reference salinity profile ( psu ) */
(PID.TID 0000.0001)    50 @  3.450000000000000E+01              /* K =  1: 50 */
(PID.TID 0000.0001)     ;
(PID.TID 0000.0001) useStrainTensionVisc= /* Use StrainTension Form of Viscous Operator */
(PID.TID 0000.0001)                   F
(PID.TID 0000.0001)     ;
(PID.TID 0000.0001) useVariableVisc = /* Use variable horizontal viscosity */
(PID.TID 0000.0001)                   T
(PID.TID 0000.0001)     ;
(PID.TID 0000.0001) useHarmonicVisc = /* Use harmonic horizontal viscosity */
(PID.TID 0000.0001)                   F
(PID.TID 0000.0001)     ;
(PID.TID 0000.0001) useBiharmonicVisc= /* Use biharmonic horiz.  viscosity */
(PID.TID 0000.0001)                   T
(PID.TID 0000.0001)     ;
(PID.TID 0000.0001) useSmag3D = /* Use isotropic 3-D Smagorinsky viscosity */
(PID.TID 0000.0001)                   F
(PID.TID 0000.0001)     ;
(PID.TID 0000.0001) viscAh  =   /* Lateral harmonic viscosity ( m^2/s ) */
(PID.TID 0000.0001)                 0.000000000000000E+00
(PID.TID 0000.0001)     ;
(PID.TID 0000.0001) viscAhMax = /* Maximum lateral harmonic viscosity ( m^2/s ) */
(PID.TID 0000.0001)                 1.000000000000000E+21
(PID.TID 0000.0001)     ;
(PID.TID 0000.0001) viscAhGrid = /* Grid dependent lateral harmonic viscosity ( non-dim. ) */
(PID.TID 0000.0001)                 0.000000000000000E+00
(PID.TID 0000.0001)     ;
(PID.TID 0000.0001) useFullLeith = /* Use Full Form of Leith Viscosity on/off flag*/
(PID.TID 0000.0001)                   F
(PID.TID 0000.0001)     ;
(PID.TID 0000.0001) useAreaViscLength = /* Use area for visc length instead of geom. mean*/
(PID.TID 0000.0001)                   T
(PID.TID 0000.0001)     ;
(PID.TID 0000.0001) viscC2leith = /* Leith harmonic visc. factor (on grad(vort),non-dim.) */
(PID.TID 0000.0001)                 0.000000000000000E+00
(PID.TID 0000.0001)     ;
(PID.TID 0000.0001) viscC2leithD = /* Leith harmonic viscosity factor (on grad(div),non-dim.)*/
(PID.TID 0000.0001)                 0.000000000000000E+00
(PID.TID 0000.0001)     ;
(PID.TID 0000.0001) viscC2smag = /* Smagorinsky harmonic viscosity factor (non-dim.) */
(PID.TID 0000.0001)                 0.000000000000000E+00
(PID.TID 0000.0001)     ;
(PID.TID 0000.0001) viscA4  =   /* Lateral biharmonic viscosity ( m^4/s ) */
(PID.TID 0000.0001)                 0.000000000000000E+00
(PID.TID 0000.0001)     ;
(PID.TID 0000.0001) viscA4Max = /* Maximum biharmonic viscosity ( m^2/s ) */
(PID.TID 0000.0001)                 1.000000000000000E+21
(PID.TID 0000.0001)     ;
(PID.TID 0000.0001) viscA4Grid = /* Grid dependent biharmonic viscosity ( non-dim. ) */
(PID.TID 0000.0001)                 0.000000000000000E+00
(PID.TID 0000.0001)     ;
(PID.TID 0000.0001) viscC4leith = /* Leith biharm viscosity factor (on grad(vort), non-dim.)*/
(PID.TID 0000.0001)                 2.150000000000000E+00
(PID.TID 0000.0001)     ;
(PID.TID 0000.0001) viscC4leithD = /* Leith biharm viscosity factor (on grad(div), non-dim.) */
(PID.TID 0000.0001)                 2.150000000000000E+00
(PID.TID 0000.0001)     ;
(PID.TID 0000.0001) viscC4Smag = /* Smagorinsky biharm viscosity factor (non-dim) */
(PID.TID 0000.0001)                 0.000000000000000E+00
(PID.TID 0000.0001)     ;
(PID.TID 0000.0001) no_slip_sides =  /* Viscous BCs: No-slip sides */
(PID.TID 0000.0001)                   T
(PID.TID 0000.0001)     ;
(PID.TID 0000.0001) sideDragFactor = /* side-drag scaling factor (non-dim) */
(PID.TID 0000.0001)                 2.000000000000000E+00
(PID.TID 0000.0001)     ;
(PID.TID 0000.0001) viscArNr = /* vertical profile of vertical viscosity ( m^2/s )*/
(PID.TID 0000.0001)    50 @  5.661400000000000E-04              /* K =  1: 50 */
(PID.TID 0000.0001)     ;
(PID.TID 0000.0001) no_slip_bottom =  /* Viscous BCs: No-slip bottom */
(PID.TID 0000.0001)                   T
(PID.TID 0000.0001)     ;
(PID.TID 0000.0001) bottomVisc_pCell = /* Partial-cell in bottom Visc. BC */
(PID.TID 0000.0001)                   F
(PID.TID 0000.0001)     ;
(PID.TID 0000.0001) bottomDragLinear = /* linear bottom-drag coefficient ( m/s ) */
(PID.TID 0000.0001)                 0.000000000000000E+00
(PID.TID 0000.0001)     ;
(PID.TID 0000.0001) bottomDragQuadratic = /* quadratic bottom-drag coefficient (-) */
(PID.TID 0000.0001)                 2.100000000000000E-03
(PID.TID 0000.0001)     ;
(PID.TID 0000.0001) selectBotDragQuadr = /* select quadratic bottom drag options */
(PID.TID 0000.0001)                       0
(PID.TID 0000.0001)     ;
(PID.TID 0000.0001) diffKhT =   /* Laplacian diffusion of heat laterally ( m^2/s ) */
(PID.TID 0000.0001)                 0.000000000000000E+00
(PID.TID 0000.0001)     ;
(PID.TID 0000.0001) diffK4T =   /* Biharmonic diffusion of heat laterally ( m^4/s ) */
(PID.TID 0000.0001)                 0.000000000000000E+00
(PID.TID 0000.0001)     ;
(PID.TID 0000.0001) diffKhS =   /* Laplacian diffusion of salt laterally ( m^2/s ) */
(PID.TID 0000.0001)                 0.000000000000000E+00
(PID.TID 0000.0001)     ;
(PID.TID 0000.0001) diffK4S =   /* Biharmonic diffusion of salt laterally ( m^4/s ) */
(PID.TID 0000.0001)                 0.000000000000000E+00
(PID.TID 0000.0001)     ;
(PID.TID 0000.0001) diffKrNrT = /* vertical profile of vertical diffusion of Temp ( m^2/s )*/
(PID.TID 0000.0001)    50 @  5.440000000000000E-07              /* K =  1: 50 */
(PID.TID 0000.0001)     ;
(PID.TID 0000.0001) diffKrNrS = /* vertical profile of vertical diffusion of Salt ( m^2/s )*/
(PID.TID 0000.0001)    50 @  5.440000000000000E-07              /* K =  1: 50 */
(PID.TID 0000.0001)     ;
(PID.TID 0000.0001) diffKrBL79surf = /* Surface diffusion for Bryan and Lewis 79 ( m^2/s ) */
(PID.TID 0000.0001)                 0.000000000000000E+00
(PID.TID 0000.0001)     ;
(PID.TID 0000.0001) diffKrBL79deep = /* Deep diffusion for Bryan and Lewis 1979 ( m^2/s ) */
(PID.TID 0000.0001)                 0.000000000000000E+00
(PID.TID 0000.0001)     ;
(PID.TID 0000.0001) diffKrBL79scl = /* Depth scale for Bryan and Lewis 1979 ( m ) */
(PID.TID 0000.0001)                 2.000000000000000E+02
(PID.TID 0000.0001)     ;
(PID.TID 0000.0001) diffKrBL79Ho = /* Turning depth for Bryan and Lewis 1979 ( m ) */
(PID.TID 0000.0001)                -2.000000000000000E+03
(PID.TID 0000.0001)     ;
(PID.TID 0000.0001) ivdc_kappa = /* Implicit Vertical Diffusivity for Convection ( m^2/s) */
(PID.TID 0000.0001)                 0.000000000000000E+00
(PID.TID 0000.0001)     ;
(PID.TID 0000.0001) hMixCriteria=  /* Criteria for mixed-layer diagnostic */
(PID.TID 0000.0001)                -8.000000000000000E-01
(PID.TID 0000.0001)     ;
(PID.TID 0000.0001) dRhoSmall =  /* Parameter for mixed-layer diagnostic */
(PID.TID 0000.0001)                 1.000000000000000E-06
(PID.TID 0000.0001)     ;
(PID.TID 0000.0001) hMixSmooth=  /* Smoothing parameter for mixed-layer diagnostic */
(PID.TID 0000.0001)                 0.000000000000000E+00
(PID.TID 0000.0001)     ;
(PID.TID 0000.0001) eosType =  /* Type of Equation of State */
(PID.TID 0000.0001)               'JMD95Z'
(PID.TID 0000.0001)     ;
(PID.TID 0000.0001) selectP_inEOS_Zc = /* select pressure to use in EOS (0,1,2,3) */
(PID.TID 0000.0001)                       0
(PID.TID 0000.0001)     0= -g*rhoConst*z ; 1= pRef (from tRef,sRef); 2= Hyd P ; 3= Hyd+NH P
(PID.TID 0000.0001)     ;
(PID.TID 0000.0001) HeatCapacity_Cp =  /* Specific heat capacity ( J/kg/K ) */
(PID.TID 0000.0001)                 3.994000000000000E+03
(PID.TID 0000.0001)     ;
(PID.TID 0000.0001) celsius2K = /* 0 degree Celsius converted to Kelvin ( K ) */
(PID.TID 0000.0001)                 2.731500000000000E+02
(PID.TID 0000.0001)     ;
(PID.TID 0000.0001) rhoConst  = /* Reference density (Boussinesq)  ( kg/m^3 ) */
(PID.TID 0000.0001)                 1.027500000000000E+03
(PID.TID 0000.0001)     ;
(PID.TID 0000.0001) rhoFacC = /* normalized Reference density @ cell-Center (-) */
(PID.TID 0000.0001)    50 @  1.000000000000000E+00              /* K =  1: 50 */
(PID.TID 0000.0001)     ;
(PID.TID 0000.0001) rhoFacF = /* normalized Reference density @ W-Interface (-) */
(PID.TID 0000.0001)    51 @  1.000000000000000E+00              /* K =  1: 51 */
(PID.TID 0000.0001)     ;
(PID.TID 0000.0001) rhoConstFresh = /* Fresh-water reference density ( kg/m^3 ) */
(PID.TID 0000.0001)                 9.998000000000000E+02
(PID.TID 0000.0001)     ;
(PID.TID 0000.0001) gravity =   /* Gravitational acceleration ( m/s^2 ) */
(PID.TID 0000.0001)                 9.810000000000000E+00
(PID.TID 0000.0001)     ;
(PID.TID 0000.0001) gBaro =   /* Barotropic gravity ( m/s^2 ) */
(PID.TID 0000.0001)                 9.810000000000000E+00
(PID.TID 0000.0001)     ;
(PID.TID 0000.0001) gravFacC = /* gravity factor (vs surf.) @ cell-Center (-) */
(PID.TID 0000.0001)    50 @  1.000000000000000E+00              /* K =  1: 50 */
(PID.TID 0000.0001)     ;
(PID.TID 0000.0001) gravFacF = /* gravity factor (vs surf.) @ W-Interface (-) */
(PID.TID 0000.0001)    51 @  1.000000000000000E+00              /* K =  1: 51 */
(PID.TID 0000.0001)     ;
(PID.TID 0000.0001) rotationPeriod =   /* Rotation Period ( s ) */
(PID.TID 0000.0001)                 8.616400000000000E+04
(PID.TID 0000.0001)     ;
(PID.TID 0000.0001) omega =   /* Angular velocity ( rad/s ) */
(PID.TID 0000.0001)                 7.292123516990375E-05
(PID.TID 0000.0001)     ;
(PID.TID 0000.0001) f0 =   /* Reference coriolis parameter ( 1/s ) */
(PID.TID 0000.0001)                 1.000000000000000E-04
(PID.TID 0000.0001)     ;
(PID.TID 0000.0001) beta =   /* Beta ( 1/(m.s) ) */
(PID.TID 0000.0001)                 9.999999999999999E-12
(PID.TID 0000.0001)     ;
(PID.TID 0000.0001) fPrime =   /* Second coriolis parameter ( 1/s ) */
(PID.TID 0000.0001)                 0.000000000000000E+00
(PID.TID 0000.0001)     ;
(PID.TID 0000.0001) rigidLid =   /* Rigid lid on/off flag */
(PID.TID 0000.0001)                   F
(PID.TID 0000.0001)     ;
(PID.TID 0000.0001) implicitFreeSurface =   /* Implicit free surface on/off flag */
(PID.TID 0000.0001)                   T
(PID.TID 0000.0001)     ;
(PID.TID 0000.0001) freeSurfFac =   /* Implicit free surface factor */
(PID.TID 0000.0001)                 1.000000000000000E+00
(PID.TID 0000.0001)     ;
(PID.TID 0000.0001) implicSurfPress =  /* Surface Pressure implicit factor (0-1)*/
(PID.TID 0000.0001)                 6.000000000000000E-01
(PID.TID 0000.0001)     ;
(PID.TID 0000.0001) implicDiv2DFlow =  /* Barot. Flow Div. implicit factor (0-1)*/
(PID.TID 0000.0001)                 6.000000000000000E-01
(PID.TID 0000.0001)     ;
(PID.TID 0000.0001) uniformLin_PhiSurf = /* use uniform Bo_surf on/off flag*/
(PID.TID 0000.0001)                   T
(PID.TID 0000.0001)     ;
(PID.TID 0000.0001) uniformFreeSurfLev = /* free-surface level-index is uniform */
(PID.TID 0000.0001)                   T
(PID.TID 0000.0001)     ;
(PID.TID 0000.0001) hFacMin =   /* minimum partial cell factor (hFac) */
(PID.TID 0000.0001)                 3.000000000000000E-01
(PID.TID 0000.0001)     ;
(PID.TID 0000.0001) hFacMinDr = /* minimum partial cell thickness ( m) */
(PID.TID 0000.0001)                 0.000000000000000E+00
(PID.TID 0000.0001)     ;
(PID.TID 0000.0001) exactConserv =  /* Exact Volume Conservation on/off flag*/
(PID.TID 0000.0001)                   T
(PID.TID 0000.0001)     ;
(PID.TID 0000.0001) linFSConserveTr = /* Tracer correction for Lin Free Surface on/off flag*/
(PID.TID 0000.0001)                   F
(PID.TID 0000.0001)     ;
(PID.TID 0000.0001) nonlinFreeSurf = /* Non-linear Free Surf. options (-1,0,1,2,3)*/
(PID.TID 0000.0001)                       0
(PID.TID 0000.0001)      -1,0= Off ; 1,2,3= On, 2=+rescale gU,gV, 3=+update cg2d solv.
(PID.TID 0000.0001)     ;
(PID.TID 0000.0001) hFacInf =   /* lower threshold for hFac (nonlinFreeSurf only)*/
(PID.TID 0000.0001)                 1.000000000000000E-01
(PID.TID 0000.0001)     ;
(PID.TID 0000.0001) hFacSup =   /* upper threshold for hFac (nonlinFreeSurf only)*/
(PID.TID 0000.0001)                 5.000000000000000E+00
(PID.TID 0000.0001)     ;
(PID.TID 0000.0001) select_rStar = /* r* Vertical coord. options (=0 r coord.; >0 uses r*)*/
(PID.TID 0000.0001)                       0
(PID.TID 0000.0001)     ;
(PID.TID 0000.0001) useRealFreshWaterFlux = /* Real Fresh Water Flux on/off flag*/
(PID.TID 0000.0001)                   T
(PID.TID 0000.0001)     ;
(PID.TID 0000.0001) temp_EvPrRn = /* Temp. of Evap/Prec/R (UNSET=use local T)(oC)*/
(PID.TID 0000.0001)                 0.000000000000000E+00
(PID.TID 0000.0001)     ;
(PID.TID 0000.0001) salt_EvPrRn = /* Salin. of Evap/Prec/R (UNSET=use local S)(psu)*/
(PID.TID 0000.0001)                 0.000000000000000E+00
(PID.TID 0000.0001)     ;
(PID.TID 0000.0001) selectAddFluid = /* option for mass source/sink of fluid (=0: off) */
(PID.TID 0000.0001)                       0
(PID.TID 0000.0001)     ;
(PID.TID 0000.0001) temp_addMass = /* Temp. of addMass array (UNSET=use local T)(oC)*/
(PID.TID 0000.0001)                 0.000000000000000E+00
(PID.TID 0000.0001)     ;
(PID.TID 0000.0001) salt_addMass = /* Salin. of addMass array (UNSET=use local S)(psu)*/
(PID.TID 0000.0001)                 0.000000000000000E+00
(PID.TID 0000.0001)     ;
(PID.TID 0000.0001) convertFW2Salt = /* convert F.W. Flux to Salt Flux (-1=use local S)(psu)*/
(PID.TID 0000.0001)                -1.000000000000000E+00
(PID.TID 0000.0001)     ;
(PID.TID 0000.0001) use3Dsolver = /* use 3-D pressure solver on/off flag */
(PID.TID 0000.0001)                   F
(PID.TID 0000.0001)     ;
(PID.TID 0000.0001) nonHydrostatic =  /* Non-Hydrostatic on/off flag */
(PID.TID 0000.0001)                   F
(PID.TID 0000.0001)     ;
(PID.TID 0000.0001) nh_Am2 = /* Non-Hydrostatic terms scaling factor */
(PID.TID 0000.0001)                 1.000000000000000E+00
(PID.TID 0000.0001)     ;
(PID.TID 0000.0001) implicitNHPress = /* Non-Hyd Pressure implicit factor (0-1)*/
(PID.TID 0000.0001)                 6.000000000000000E-01
(PID.TID 0000.0001)     ;
(PID.TID 0000.0001) selectNHfreeSurf = /* Non-Hyd (free-)Surface option */
(PID.TID 0000.0001)                       0
(PID.TID 0000.0001)     ;
(PID.TID 0000.0001) quasiHydrostatic = /* Quasi-Hydrostatic on/off flag */
(PID.TID 0000.0001)                   F
(PID.TID 0000.0001)     ;
(PID.TID 0000.0001) calc_wVelocity = /* vertical velocity calculation on/off flag */
(PID.TID 0000.0001)                   T
(PID.TID 0000.0001)     ;
(PID.TID 0000.0001) momStepping =  /* Momentum equation on/off flag */
(PID.TID 0000.0001)                   T
(PID.TID 0000.0001)     ;
(PID.TID 0000.0001) vectorInvariantMomentum= /* Vector-Invariant Momentum on/off */
(PID.TID 0000.0001)                   T
(PID.TID 0000.0001)     ;
(PID.TID 0000.0001) momAdvection =  /* Momentum advection on/off flag */
(PID.TID 0000.0001)                   T
(PID.TID 0000.0001)     ;
(PID.TID 0000.0001) momViscosity =  /* Momentum viscosity on/off flag */
(PID.TID 0000.0001)                   T
(PID.TID 0000.0001)     ;
(PID.TID 0000.0001) momImplVertAdv= /* Momentum implicit vert. advection on/off*/
(PID.TID 0000.0001)                   F
(PID.TID 0000.0001)     ;
(PID.TID 0000.0001) implicitViscosity = /* Implicit viscosity on/off flag */
(PID.TID 0000.0001)                   T
(PID.TID 0000.0001)     ;
(PID.TID 0000.0001) selectImplicitDrag= /* Implicit bot Drag options (0,1,2)*/
(PID.TID 0000.0001)                       0
(PID.TID 0000.0001)     0= Expl. ; 1= Impl. on provis. Vel ; 2= Fully Impl (with surf.P)
(PID.TID 0000.0001)     ;
(PID.TID 0000.0001) metricTerms =  /* metric-Terms on/off flag */
(PID.TID 0000.0001)                   F
(PID.TID 0000.0001)     ;
(PID.TID 0000.0001) useNHMTerms = /* Non-Hydrostatic Metric-Terms on/off */
(PID.TID 0000.0001)                   F
(PID.TID 0000.0001)     ;
(PID.TID 0000.0001) selectCoriMap = /* Coriolis Map options (0,1,2,3)*/
(PID.TID 0000.0001)                       2
(PID.TID 0000.0001)     0= f-Plane ; 1= Beta-Plane ; 2= Spherical ; 3= read from file
(PID.TID 0000.0001)     ;
(PID.TID 0000.0001) use3dCoriolis = /* 3-D Coriolis on/off flag */
(PID.TID 0000.0001)                   F
(PID.TID 0000.0001)     ;
(PID.TID 0000.0001) useCoriolis =  /* Coriolis on/off flag */
(PID.TID 0000.0001)                   T
(PID.TID 0000.0001)     ;
(PID.TID 0000.0001) useCDscheme =  /* CD scheme on/off flag */
(PID.TID 0000.0001)                   F
(PID.TID 0000.0001)     ;
(PID.TID 0000.0001) useEnergyConservingCoriolis= /* Flx-Form Coriolis scheme flag */
(PID.TID 0000.0001)                   F
(PID.TID 0000.0001)     ;
(PID.TID 0000.0001) useJamartWetPoints= /* Coriolis WetPoints method flag */
(PID.TID 0000.0001)                   F
(PID.TID 0000.0001)     ;
(PID.TID 0000.0001) useJamartMomAdv= /* V.I Non-linear terms Jamart flag */
(PID.TID 0000.0001)                   F
(PID.TID 0000.0001)     ;
(PID.TID 0000.0001) useAbsVorticity= /* V.I Works with f+zeta in Coriolis */
(PID.TID 0000.0001)                   F
(PID.TID 0000.0001)     ;
(PID.TID 0000.0001) selectVortScheme= /* V.I Scheme selector for Vorticity-Term */
(PID.TID 0000.0001)                       0
(PID.TID 0000.0001)    = 0 : enstrophy (Shallow-Water Eq.) conserving scheme by Sadourny, JAS 75
(PID.TID 0000.0001)    = 1 : same as 0 with modified hFac
(PID.TID 0000.0001)    = 2 : energy conserving scheme (used by Sadourny in JAS 75 paper)
(PID.TID 0000.0001)    = 3 : energy (general) and enstrophy (2D, nonDiv.) conserving scheme
(PID.TID 0000.0001)          from Sadourny (Burridge & Haseler, ECMWF Rep.4, 1977)
(PID.TID 0000.0001)     ;
(PID.TID 0000.0001) upwindVorticity= /* V.I Upwind bias vorticity flag */
(PID.TID 0000.0001)                   F
(PID.TID 0000.0001)     ;
(PID.TID 0000.0001) highOrderVorticity= /* V.I High order vort. advect. flag */
(PID.TID 0000.0001)                   T
(PID.TID 0000.0001)     ;
(PID.TID 0000.0001) upwindShear= /* V.I Upwind vertical Shear advection flag */
(PID.TID 0000.0001)                   F
(PID.TID 0000.0001)     ;
(PID.TID 0000.0001) selectKEscheme= /* V.I Kinetic Energy scheme selector */
(PID.TID 0000.0001)                       0
(PID.TID 0000.0001)     ;
(PID.TID 0000.0001) momForcing =  /* Momentum forcing on/off flag */
(PID.TID 0000.0001)                   T
(PID.TID 0000.0001)     ;
(PID.TID 0000.0001) momTidalForcing = /* Momentum Tidal forcing on/off flag */
(PID.TID 0000.0001)                   T
(PID.TID 0000.0001)     ;
(PID.TID 0000.0001) momPressureForcing =  /* Momentum pressure term on/off flag */
(PID.TID 0000.0001)                   T
(PID.TID 0000.0001)     ;
(PID.TID 0000.0001) implicitIntGravWave= /* Implicit Internal Gravity Wave flag */
(PID.TID 0000.0001)                   F
(PID.TID 0000.0001)     ;
(PID.TID 0000.0001) staggerTimeStep =    /* Stagger time stepping on/off flag */
(PID.TID 0000.0001)                   T
(PID.TID 0000.0001)     ;
(PID.TID 0000.0001) doResetHFactors = /* reset thickness factors @ each time-step */
(PID.TID 0000.0001)                   F
(PID.TID 0000.0001)     ;
(PID.TID 0000.0001) multiDimAdvection =  /* enable/disable Multi-Dim Advection */
(PID.TID 0000.0001)                   T
(PID.TID 0000.0001)     ;
(PID.TID 0000.0001) useMultiDimAdvec =   /* Multi-Dim Advection is/is-not used */
(PID.TID 0000.0001)                   T
(PID.TID 0000.0001)     ;
(PID.TID 0000.0001) implicitDiffusion = /* Implicit Diffusion on/off flag */
(PID.TID 0000.0001)                   T
(PID.TID 0000.0001)     ;
(PID.TID 0000.0001) tempStepping =  /* Temperature equation on/off flag */
(PID.TID 0000.0001)                   T
(PID.TID 0000.0001)     ;
(PID.TID 0000.0001) tempAdvection = /* Temperature advection on/off flag */
(PID.TID 0000.0001)                   T
(PID.TID 0000.0001)     ;
(PID.TID 0000.0001) tempImplVertAdv = /* Temp. implicit vert. advection on/off */
(PID.TID 0000.0001)                   F
(PID.TID 0000.0001)     ;
(PID.TID 0000.0001) tempForcing  =  /* Temperature forcing on/off flag */
(PID.TID 0000.0001)                   T
(PID.TID 0000.0001)     ;
(PID.TID 0000.0001) doThetaClimRelax = /* apply SST relaxation on/off flag */
(PID.TID 0000.0001)                   F
(PID.TID 0000.0001)     ;
(PID.TID 0000.0001) tempIsActiveTr = /* Temp. is a dynamically Active Tracer */
(PID.TID 0000.0001)                   T
(PID.TID 0000.0001)     ;
(PID.TID 0000.0001) saltStepping =  /* Salinity equation on/off flag */
(PID.TID 0000.0001)                   T
(PID.TID 0000.0001)     ;
(PID.TID 0000.0001) saltAdvection = /* Salinity advection on/off flag */
(PID.TID 0000.0001)                   T
(PID.TID 0000.0001)     ;
(PID.TID 0000.0001) saltImplVertAdv = /* Sali. implicit vert. advection on/off */
(PID.TID 0000.0001)                   F
(PID.TID 0000.0001)     ;
(PID.TID 0000.0001) saltForcing  =  /* Salinity forcing on/off flag */
(PID.TID 0000.0001)                   T
(PID.TID 0000.0001)     ;
(PID.TID 0000.0001) doSaltClimRelax = /* apply SSS relaxation on/off flag */
(PID.TID 0000.0001)                   F
(PID.TID 0000.0001)     ;
(PID.TID 0000.0001) saltIsActiveTr = /* Salt  is a dynamically Active Tracer */
(PID.TID 0000.0001)                   T
(PID.TID 0000.0001)     ;
(PID.TID 0000.0001)  readBinaryPrec = /* Precision used for reading binary files */
(PID.TID 0000.0001)                      32
(PID.TID 0000.0001)     ;
(PID.TID 0000.0001) writeBinaryPrec = /* Precision used for writing binary files */
(PID.TID 0000.0001)                      32
(PID.TID 0000.0001)     ;
(PID.TID 0000.0001)  rwSuffixType =   /* select format of mds file suffix */
(PID.TID 0000.0001)                       0
(PID.TID 0000.0001)    = 0 : myIter (I10.10) ;   = 1 : 100*myTime (100th sec) ;
(PID.TID 0000.0001)    = 2 : myTime (seconds);   = 3 : myTime/360 (10th of hr);
(PID.TID 0000.0001)    = 4 : myTime/3600 (hours)
(PID.TID 0000.0001)     ;
(PID.TID 0000.0001)  globalFiles = /* write "global" (=not per tile) files */
(PID.TID 0000.0001)                   T
(PID.TID 0000.0001)     ;
(PID.TID 0000.0001)  useSingleCpuIO = /* only master MPI process does I/O */
(PID.TID 0000.0001)                   F
(PID.TID 0000.0001)     ;
(PID.TID 0000.0001)  useSingleCpuInput = /* only master process reads input */
(PID.TID 0000.0001)                   T
(PID.TID 0000.0001)     ;
(PID.TID 0000.0001) /* debLev[*]  : level of debug & auxiliary message printing */
(PID.TID 0000.0001) debLevZero =  0 ; /* level of disabled aux. msg printing */
(PID.TID 0000.0001)    debLevA =  1 ; /* level of minimum  aux. msg printing */
(PID.TID 0000.0001)    debLevB =  2 ; /* level of low aux. print (report read-file opening)*/
(PID.TID 0000.0001)    debLevC =  3 ; /* level of moderate debug prt (most pkgs debug msg) */
(PID.TID 0000.0001)    debLevD =  4 ; /* level of enhanced debug prt (add DEBUG_STATS prt) */
(PID.TID 0000.0001)    debLevE =  5 ; /* level of extensive debug printing */
(PID.TID 0000.0001) debugLevel =  /* select debug printing level */
(PID.TID 0000.0001)                       2
(PID.TID 0000.0001)     ;
(PID.TID 0000.0001)  plotLevel =  /* select PLOT_FIELD printing level */
(PID.TID 0000.0001)                       2
(PID.TID 0000.0001)     ;
(PID.TID 0000.0001) //
(PID.TID 0000.0001) // Elliptic solver(s) paramters ( PARM02 in namelist )
(PID.TID 0000.0001) //
(PID.TID 0000.0001) cg2dMaxIters =   /* Upper limit on 2d con. grad iterations  */
(PID.TID 0000.0001)                     100
(PID.TID 0000.0001)     ;
(PID.TID 0000.0001) cg2dChkResFreq =   /* 2d con. grad convergence test frequency */
(PID.TID 0000.0001)                       1
(PID.TID 0000.0001)     ;
(PID.TID 0000.0001) cg2dUseMinResSol= /* use cg2d last-iter(=0) / min-resid.(=1) solution */
(PID.TID 0000.0001)                       0
(PID.TID 0000.0001)     ;
(PID.TID 0000.0001) cg2dTargetResidual =   /* 2d con. grad target residual  */
(PID.TID 0000.0001)                 1.000000000000000E-05
(PID.TID 0000.0001)     ;
(PID.TID 0000.0001) cg2dTargetResWunit =   /* CG2d target residual [W units] */
(PID.TID 0000.0001)                -1.000000000000000E+00
(PID.TID 0000.0001)     ;
(PID.TID 0000.0001) cg2dPreCondFreq =   /* Freq. for updating cg2d preconditioner */
(PID.TID 0000.0001)                       1
(PID.TID 0000.0001)     ;
(PID.TID 0000.0001) useSRCGSolver =  /* use single reduction CG solver(s) */
(PID.TID 0000.0001)                   F
(PID.TID 0000.0001)     ;
(PID.TID 0000.0001) printResidualFreq = /* Freq. for printing CG residual */
(PID.TID 0000.0001)                       0
(PID.TID 0000.0001)     ;
(PID.TID 0000.0001) //
(PID.TID 0000.0001) // Time stepping paramters ( PARM03 in namelist )
(PID.TID 0000.0001) //
(PID.TID 0000.0001) deltaTMom =   /* Momentum equation timestep ( s ) */
(PID.TID 0000.0001)                 9.000000000000000E+02
(PID.TID 0000.0001)     ;
(PID.TID 0000.0001) deltaTFreeSurf = /* FreeSurface equation timestep ( s ) */
(PID.TID 0000.0001)                 9.000000000000000E+02
(PID.TID 0000.0001)     ;
(PID.TID 0000.0001) dTtracerLev =  /* Tracer equation timestep ( s ) */
(PID.TID 0000.0001)    50 @  9.000000000000000E+02              /* K =  1: 50 */
(PID.TID 0000.0001)     ;
(PID.TID 0000.0001) deltaTClock  =   /* Model clock timestep ( s ) */
(PID.TID 0000.0001)                 9.000000000000000E+02
(PID.TID 0000.0001)     ;
(PID.TID 0000.0001) cAdjFreq =   /* Convective adjustment interval ( s ) */
(PID.TID 0000.0001)                 0.000000000000000E+00
(PID.TID 0000.0001)     ;
(PID.TID 0000.0001) momForcingOutAB = /* =1: take Momentum Forcing out of Adams-Bash. stepping */
(PID.TID 0000.0001)                       1
(PID.TID 0000.0001)     ;
(PID.TID 0000.0001) tracForcingOutAB = /* =1: take T,S,pTr Forcing out of Adams-Bash. stepping */
(PID.TID 0000.0001)                       1
(PID.TID 0000.0001)     ;
(PID.TID 0000.0001) momDissip_In_AB = /* put Dissipation Tendency in Adams-Bash. stepping */
(PID.TID 0000.0001)                   F
(PID.TID 0000.0001)     ;
(PID.TID 0000.0001) doAB_onGtGs = /* apply AB on Tendencies (rather than on T,S)*/
(PID.TID 0000.0001)                   T
(PID.TID 0000.0001)     ;
(PID.TID 0000.0001) abEps =   /* Adams-Bashforth-2 stabilizing weight */
(PID.TID 0000.0001)                 1.000000000000000E-01
(PID.TID 0000.0001)     ;
(PID.TID 0000.0001) applyExchUV_early = /* Apply EXCH to U,V earlier in time-step */
(PID.TID 0000.0001)                   F
(PID.TID 0000.0001)     ;
(PID.TID 0000.0001) pickupStrictlyMatch= /* stop if pickup do not strictly match */
(PID.TID 0000.0001)                   T
(PID.TID 0000.0001)     ;
(PID.TID 0000.0001) nIter0   =   /* Run starting timestep number */
(PID.TID 0000.0001)                       1
(PID.TID 0000.0001)     ;
(PID.TID 0000.0001) nTimeSteps = /* Number of timesteps */
(PID.TID 0000.0001)                      96
(PID.TID 0000.0001)     ;
(PID.TID 0000.0001) nEndIter =   /* Run ending timestep number */
(PID.TID 0000.0001)                      97
(PID.TID 0000.0001)     ;
(PID.TID 0000.0001) baseTime =   /* Model base time ( s ) */
(PID.TID 0000.0001)                 0.000000000000000E+00
(PID.TID 0000.0001)     ;
(PID.TID 0000.0001) startTime =  /* Run start time ( s ) */
(PID.TID 0000.0001)                 9.000000000000000E+02
(PID.TID 0000.0001)     ;
(PID.TID 0000.0001) endTime  =   /* Integration ending time ( s ) */
(PID.TID 0000.0001)                 8.730000000000000E+04
(PID.TID 0000.0001)     ;
(PID.TID 0000.0001) pChkPtFreq = /* Permanent restart/pickup file interval ( s ) */
(PID.TID 0000.0001)                 0.000000000000000E+00
(PID.TID 0000.0001)     ;
(PID.TID 0000.0001) chkPtFreq  = /* Rolling restart/pickup file interval ( s ) */
(PID.TID 0000.0001)                 8.640000000000000E+04
(PID.TID 0000.0001)     ;
(PID.TID 0000.0001) pickup_write_mdsio =   /* Model IO flag. */
(PID.TID 0000.0001)                   T
(PID.TID 0000.0001)     ;
(PID.TID 0000.0001) pickup_read_mdsio =   /* Model IO flag. */
(PID.TID 0000.0001)                   T
(PID.TID 0000.0001)     ;
(PID.TID 0000.0001) writePickupAtEnd =   /* Model IO flag. */
(PID.TID 0000.0001)                   T
(PID.TID 0000.0001)     ;
(PID.TID 0000.0001) dumpFreq =   /* Model state write out interval ( s ). */
(PID.TID 0000.0001)                 3.600000000000000E+03
(PID.TID 0000.0001)     ;
(PID.TID 0000.0001) dumpInitAndLast= /* write out Initial & Last iter. model state */
(PID.TID 0000.0001)                   F
(PID.TID 0000.0001)     ;
(PID.TID 0000.0001) snapshot_mdsio =   /* Model IO flag. */
(PID.TID 0000.0001)                   T
(PID.TID 0000.0001)     ;
(PID.TID 0000.0001) monitorFreq =   /* Monitor output interval ( s ). */
(PID.TID 0000.0001)                 7.200000000000000E+03
(PID.TID 0000.0001)     ;
(PID.TID 0000.0001) monitorSelect = /* select group of variables to monitor */
(PID.TID 0000.0001)                       3
(PID.TID 0000.0001)     ;
(PID.TID 0000.0001) monitor_stdio =   /* Model IO flag. */
(PID.TID 0000.0001)                   T
(PID.TID 0000.0001)     ;
(PID.TID 0000.0001) externForcingPeriod =   /* forcing period (s) */
(PID.TID 0000.0001)                 0.000000000000000E+00
(PID.TID 0000.0001)     ;
(PID.TID 0000.0001) externForcingCycle =   /* period of the cyle (s). */
(PID.TID 0000.0001)                 0.000000000000000E+00
(PID.TID 0000.0001)     ;
(PID.TID 0000.0001) tauThetaClimRelax =   /* relaxation time scale (s) */
(PID.TID 0000.0001)                 0.000000000000000E+00
(PID.TID 0000.0001)     ;
(PID.TID 0000.0001) tauSaltClimRelax =   /* relaxation time scale (s) */
(PID.TID 0000.0001)                 0.000000000000000E+00
(PID.TID 0000.0001)     ;
(PID.TID 0000.0001) latBandClimRelax =   /* max. Lat. where relaxation */
(PID.TID 0000.0001)                 1.800000000000000E+02
(PID.TID 0000.0001)     ;
(PID.TID 0000.0001) //
(PID.TID 0000.0001) // Gridding paramters ( PARM04 in namelist )
(PID.TID 0000.0001) //
(PID.TID 0000.0001) usingCartesianGrid = /* Cartesian coordinates flag ( True/False ) */
(PID.TID 0000.0001)                   F
(PID.TID 0000.0001)     ;
(PID.TID 0000.0001) usingCylindricalGrid = /* Cylindrical coordinates flag ( True/False ) */
(PID.TID 0000.0001)                   F
(PID.TID 0000.0001)     ;
(PID.TID 0000.0001) usingSphericalPolarGrid = /* Spherical coordinates flag ( True/False ) */
(PID.TID 0000.0001)                   F
(PID.TID 0000.0001)     ;
(PID.TID 0000.0001) usingCurvilinearGrid = /* Curvilinear coordinates flag ( True/False ) */
(PID.TID 0000.0001)                   T
(PID.TID 0000.0001)     ;
(PID.TID 0000.0001) useMin4hFacEdges = /* set hFacW,S as minimum of adjacent hFacC factor */
(PID.TID 0000.0001)                   F
(PID.TID 0000.0001)     ;
(PID.TID 0000.0001) selectSigmaCoord = /* Hybrid-Sigma Vert. Coordinate option */
(PID.TID 0000.0001)                       0
(PID.TID 0000.0001)     ;
(PID.TID 0000.0001) rSigmaBnd = /* r/sigma transition ( units of r ==  m ) */
(PID.TID 0000.0001)                 1.234567000000000E+05
(PID.TID 0000.0001)     ;
(PID.TID 0000.0001) rkSign =   /* index orientation relative to vertical coordinate */
(PID.TID 0000.0001)                -1.000000000000000E+00
(PID.TID 0000.0001)     ;
(PID.TID 0000.0001) gravitySign = /* gravity orientation relative to vertical coordinate */
(PID.TID 0000.0001)                -1.000000000000000E+00
(PID.TID 0000.0001)     ;
(PID.TID 0000.0001) seaLev_Z =  /* reference height of sea-level [m] */
(PID.TID 0000.0001)                 0.000000000000000E+00
(PID.TID 0000.0001)     ;
(PID.TID 0000.0001) top_Pres =  /* reference pressure at the top [Pa] */
(PID.TID 0000.0001)                 0.000000000000000E+00
(PID.TID 0000.0001)     ;
(PID.TID 0000.0001) mass2rUnit = /* convert mass per unit area [kg/m2] to r-units [m] */
(PID.TID 0000.0001)                 9.732360097323601E-04
(PID.TID 0000.0001)     ;
(PID.TID 0000.0001) rUnit2mass = /* convert r-units [m] to mass per unit area [kg/m2] */
(PID.TID 0000.0001)                 1.027500000000000E+03
(PID.TID 0000.0001)     ;
(PID.TID 0000.0001) drC =   /* C spacing ( units of r ) */
(PID.TID 0000.0001)                 5.000000000000000E+00,      /* K =  1 */
(PID.TID 0000.0001)     6 @  1.000000000000000E+01,             /* K =  2:  7 */
(PID.TID 0000.0001)                 1.000500000000000E+01,      /* K =  8 */
(PID.TID 0000.0001)                 1.002000000000000E+01,      /* K =  9 */
(PID.TID 0000.0001)                 1.007000000000000E+01,      /* K = 10 */
(PID.TID 0000.0001)                 1.021500000000000E+01,      /* K = 11 */
(PID.TID 0000.0001)                 1.056000000000000E+01,      /* K = 12 */
(PID.TID 0000.0001)                 1.128000000000000E+01,      /* K = 13 */
(PID.TID 0000.0001)                 1.259000000000000E+01,      /* K = 14 */
(PID.TID 0000.0001)                 1.473000000000000E+01,      /* K = 15 */
(PID.TID 0000.0001)                 1.793000000000000E+01,      /* K = 16 */
(PID.TID 0000.0001)                 2.233500000000000E+01,      /* K = 17 */
(PID.TID 0000.0001)                 2.797500000000000E+01,      /* K = 18 */
(PID.TID 0000.0001)                 3.476000000000001E+01,      /* K = 19 */
(PID.TID 0000.0001)                 4.246000000000000E+01,      /* K = 20 */
(PID.TID 0000.0001)                 5.075000000000000E+01,      /* K = 21 */
(PID.TID 0000.0001)                 5.925000000000000E+01,      /* K = 22 */
(PID.TID 0000.0001)                 6.753999999999999E+01,      /* K = 23 */
(PID.TID 0000.0001)                 7.524000000000001E+01,      /* K = 24 */
(PID.TID 0000.0001)                 8.202500000000001E+01,      /* K = 25 */
(PID.TID 0000.0001)                 8.766500000000001E+01,      /* K = 26 */
(PID.TID 0000.0001)                 9.206999999999999E+01,      /* K = 27 */
(PID.TID 0000.0001)                 9.527000000000000E+01,      /* K = 28 */
(PID.TID 0000.0001)                 9.741499999999999E+01,      /* K = 29 */
(PID.TID 0000.0001)                 9.875000000000000E+01,      /* K = 30 */
(PID.TID 0000.0001)                 9.963000000000000E+01,      /* K = 31 */
(PID.TID 0000.0001)                 1.006700000000000E+02,      /* K = 32 */
(PID.TID 0000.0001)                 1.029450000000000E+02,      /* K = 33 */
(PID.TID 0000.0001)                 1.079450000000000E+02,      /* K = 34 */
(PID.TID 0000.0001)                 1.170800000000000E+02,      /* K = 35 */
(PID.TID 0000.0001)                 1.309600000000000E+02,      /* K = 36 */
(PID.TID 0000.0001)                 1.490150000000000E+02,      /* K = 37 */
(PID.TID 0000.0001)                 1.698850000000000E+02,      /* K = 38 */
(PID.TID 0000.0001)                 1.921900000000000E+02,      /* K = 39 */
(PID.TID 0000.0001)                 2.150250000000000E+02,      /* K = 40 */
(PID.TID 0000.0001)                 2.380000000000000E+02,      /* K = 41 */
(PID.TID 0000.0001)                 2.610000000000000E+02,      /* K = 42 */
(PID.TID 0000.0001)                 2.840000000000000E+02,      /* K = 43 */
(PID.TID 0000.0001)                 3.070000000000000E+02,      /* K = 44 */
(PID.TID 0000.0001)                 3.300000000000000E+02,      /* K = 45 */
(PID.TID 0000.0001)                 3.530000000000000E+02,      /* K = 46 */
(PID.TID 0000.0001)                 3.760000000000000E+02,      /* K = 47 */
(PID.TID 0000.0001)                 3.990000000000000E+02,      /* K = 48 */
(PID.TID 0000.0001)                 4.220000000000000E+02,      /* K = 49 */
(PID.TID 0000.0001)                 4.450000000000000E+02,      /* K = 50 */
(PID.TID 0000.0001)                 2.282500000000000E+02       /* K = 51 */
(PID.TID 0000.0001)     ;
(PID.TID 0000.0001) drF =   /* W spacing ( units of r ) */
(PID.TID 0000.0001)     7 @  1.000000000000000E+01,             /* K =  1:  7 */
(PID.TID 0000.0001)                 1.001000000000000E+01,      /* K =  8 */
(PID.TID 0000.0001)                 1.003000000000000E+01,      /* K =  9 */
(PID.TID 0000.0001)                 1.011000000000000E+01,      /* K = 10 */
(PID.TID 0000.0001)                 1.032000000000000E+01,      /* K = 11 */
(PID.TID 0000.0001)                 1.080000000000000E+01,      /* K = 12 */
(PID.TID 0000.0001)                 1.176000000000000E+01,      /* K = 13 */
(PID.TID 0000.0001)                 1.342000000000000E+01,      /* K = 14 */
(PID.TID 0000.0001)                 1.604000000000000E+01,      /* K = 15 */
(PID.TID 0000.0001)                 1.982000000000000E+01,      /* K = 16 */
(PID.TID 0000.0001)                 2.485000000000000E+01,      /* K = 17 */
(PID.TID 0000.0001)                 3.110000000000000E+01,      /* K = 18 */
(PID.TID 0000.0001)                 3.842000000000000E+01,      /* K = 19 */
(PID.TID 0000.0001)                 4.650000000000000E+01,      /* K = 20 */
(PID.TID 0000.0001)                 5.500000000000000E+01,      /* K = 21 */
(PID.TID 0000.0001)                 6.350000000000000E+01,      /* K = 22 */
(PID.TID 0000.0001)                 7.158000000000000E+01,      /* K = 23 */
(PID.TID 0000.0001)                 7.890000000000001E+01,      /* K = 24 */
(PID.TID 0000.0001)                 8.515000000000001E+01,      /* K = 25 */
(PID.TID 0000.0001)                 9.018000000000001E+01,      /* K = 26 */
(PID.TID 0000.0001)                 9.395999999999999E+01,      /* K = 27 */
(PID.TID 0000.0001)                 9.658000000000000E+01,      /* K = 28 */
(PID.TID 0000.0001)                 9.825000000000000E+01,      /* K = 29 */
(PID.TID 0000.0001)                 9.925000000000000E+01,      /* K = 30 */
(PID.TID 0000.0001)                 1.000100000000000E+02,      /* K = 31 */
(PID.TID 0000.0001)                 1.013300000000000E+02,      /* K = 32 */
(PID.TID 0000.0001)                 1.045600000000000E+02,      /* K = 33 */
(PID.TID 0000.0001)                 1.113300000000000E+02,      /* K = 34 */
(PID.TID 0000.0001)                 1.228300000000000E+02,      /* K = 35 */
(PID.TID 0000.0001)                 1.390900000000000E+02,      /* K = 36 */
(PID.TID 0000.0001)                 1.589400000000000E+02,      /* K = 37 */
(PID.TID 0000.0001)                 1.808300000000000E+02,      /* K = 38 */
(PID.TID 0000.0001)                 2.035500000000000E+02,      /* K = 39 */
(PID.TID 0000.0001)                 2.265000000000000E+02,      /* K = 40 */
(PID.TID 0000.0001)                 2.495000000000000E+02,      /* K = 41 */
(PID.TID 0000.0001)                 2.725000000000000E+02,      /* K = 42 */
(PID.TID 0000.0001)                 2.955000000000000E+02,      /* K = 43 */
(PID.TID 0000.0001)                 3.185000000000000E+02,      /* K = 44 */
(PID.TID 0000.0001)                 3.415000000000000E+02,      /* K = 45 */
(PID.TID 0000.0001)                 3.645000000000000E+02,      /* K = 46 */
(PID.TID 0000.0001)                 3.875000000000000E+02,      /* K = 47 */
(PID.TID 0000.0001)                 4.105000000000000E+02,      /* K = 48 */
(PID.TID 0000.0001)                 4.335000000000000E+02,      /* K = 49 */
(PID.TID 0000.0001)                 4.565000000000000E+02       /* K = 50 */
(PID.TID 0000.0001)     ;
(PID.TID 0000.0001) radius_fromHorizGrid = /* sphere Radius of input horiz. grid */
(PID.TID 0000.0001)                 6.370000000000000E+06
(PID.TID 0000.0001)     ;
(PID.TID 0000.0001) rSphere =  /* Radius ( ignored - cartesian, m - spherical ) */
(PID.TID 0000.0001)                 6.370000000000000E+06
(PID.TID 0000.0001)     ;
(PID.TID 0000.0001) deepAtmosphere = /* Deep/Shallow Atmosphere flag (True/False) */
(PID.TID 0000.0001)                   F
(PID.TID 0000.0001)     ;
(PID.TID 0000.0001) xC =  /* xC(:,1,:,1) : P-point X coord ( deg. or m if cartesian) */
(PID.TID 0000.0001)                -4.081468768806280E+01,      /* I =  1 */
(PID.TID 0000.0001)                -3.957104986057077E+01,      /* I =  2 */
(PID.TID 0000.0001)                -3.832217028656162E+01,      /* I =  3 */
(PID.TID 0000.0001)                -3.706844413107324E+01,      /* I =  4 */
(PID.TID 0000.0001)                -3.581028225779612E+01,      /* I =  5 */
(PID.TID 0000.0001)                -3.454811012006861E+01,      /* I =  6 */
(PID.TID 0000.0001)                -3.328236654497336E+01,      /* I =  7 */
(PID.TID 0000.0001)                -3.201350241727823E+01,      /* I =  8 */
(PID.TID 0000.0001)                -3.074197927113779E+01,      /* I =  9 */
(PID.TID 0000.0001)                -2.946826779826338E+01,      /* I = 10 */
(PID.TID 0000.0001)                -2.819284628214859E+01,      /* I = 11 */
(PID.TID 0000.0001)                -2.691619896217756E+01,      /* I = 12 */
(PID.TID 0000.0001)                -2.563881425705264E+01,      /* I = 13 */
(PID.TID 0000.0001)                -2.436118574294736E+01,      /* I = 14 */
(PID.TID 0000.0001)                -2.308380103782244E+01,      /* I = 15 */
(PID.TID 0000.0001)                -2.180715371785141E+01,      /* I = 16 */
(PID.TID 0000.0001)                -2.053173220173662E+01,      /* I = 17 */
(PID.TID 0000.0001)                -1.925802072886221E+01,      /* I = 18 */
(PID.TID 0000.0001)                -1.798649758272177E+01,      /* I = 19 */
(PID.TID 0000.0001)                -1.671763345502664E+01,      /* I = 20 */
(PID.TID 0000.0001)                -1.545188987993139E+01,      /* I = 21 */
(PID.TID 0000.0001)                -1.418971774220388E+01,      /* I = 22 */
(PID.TID 0000.0001)                -1.293155586892676E+01,      /* I = 23 */
(PID.TID 0000.0001)                -1.167782971343838E+01,      /* I = 24 */
(PID.TID 0000.0001)                -1.042895013942923E+01,      /* I = 25 */
(PID.TID 0000.0001)                -9.185312311937196E+00,      /* I = 26 */
(PID.TID 0000.0001)                -7.947294700425999E+00,      /* I = 27 */
(PID.TID 0000.0001)                -6.715258197621779E+00,      /* I = 28 */
(PID.TID 0000.0001)                -5.489545357070952E+00,      /* I = 29 */
(PID.TID 0000.0001)                -4.270479749729759E+00       /* I = 30 */
(PID.TID 0000.0001)     ;
(PID.TID 0000.0001) yC =  /* yC(1,:,1,:) : P-point Y coord ( deg. or m if cartesian) */
(PID.TID 0000.0001)                -8.146222940368236E+01,      /* J =  1 */
(PID.TID 0000.0001)                -8.113083815286421E+01,      /* J =  2 */
(PID.TID 0000.0001)                -8.079504828233755E+01,      /* J =  3 */
(PID.TID 0000.0001)                -8.045491317322768E+01,      /* J =  4 */
(PID.TID 0000.0001)                -8.011048280590389E+01,      /* J =  5 */
(PID.TID 0000.0001)                -7.976180430515704E+01,      /* J =  6 */
(PID.TID 0000.0001)                -7.940892240526760E+01,      /* J =  7 */
(PID.TID 0000.0001)                -7.905187984845006E+01,      /* J =  8 */
(PID.TID 0000.0001)                -7.869071772754813E+01,      /* J =  9 */
(PID.TID 0000.0001)                -7.832547578199167E+01,      /* J = 10 */
(PID.TID 0000.0001)                -7.795619265432416E+01,      /* J = 11 */
(PID.TID 0000.0001)                -7.758290611340497E+01,      /* J = 12 */
(PID.TID 0000.0001)                -7.720565324926896E+01,      /* J = 13 */
(PID.TID 0000.0001)                -7.682447064385434E+01,      /* J = 14 */
(PID.TID 0000.0001)                -7.643939452107085E+01,      /* J = 15 */
(PID.TID 0000.0001)                -7.605046087901695E+01,      /* J = 16 */
(PID.TID 0000.0001)                -7.565770560699295E+01,      /* J = 17 */
(PID.TID 0000.0001)                -7.526116458910658E+01,      /* J = 18 */
(PID.TID 0000.0001)                -7.486087379640449E+01,      /* J = 19 */
(PID.TID 0000.0001)                -7.445686936886233E+01,      /* J = 20 */
(PID.TID 0000.0001)                -7.404918768854837E+01,      /* J = 21 */
(PID.TID 0000.0001)                -7.363786544493549E+01,      /* J = 22 */
(PID.TID 0000.0001)                -7.322293969328220E+01,      /* J = 23 */
(PID.TID 0000.0001)                -7.280444790682334E+01,      /* J = 24 */
(PID.TID 0000.0001)                -7.238242802328044E+01,      /* J = 25 */
(PID.TID 0000.0001)                -7.195691848614972E+01,      /* J = 26 */
(PID.TID 0000.0001)                -7.152795828082729E+01,      /* J = 27 */
(PID.TID 0000.0001)                -7.109558696482472E+01,      /* J = 28 */
(PID.TID 0000.0001)                -7.065984468855757E+01,      /* J = 29 */
(PID.TID 0000.0001)                -7.022077218177122E+01       /* J = 30 */
(PID.TID 0000.0001)     ;
(PID.TID 0000.0001) rcoord = /* P-point R coordinate (  units of r ) */
(PID.TID 0000.0001)                -5.000000000000000E+00,      /* K =  1 */
(PID.TID 0000.0001)                -1.500000000000000E+01,      /* K =  2 */
(PID.TID 0000.0001)                -2.500000000000000E+01,      /* K =  3 */
(PID.TID 0000.0001)                -3.500000000000000E+01,      /* K =  4 */
(PID.TID 0000.0001)                -4.500000000000000E+01,      /* K =  5 */
(PID.TID 0000.0001)                -5.500000000000000E+01,      /* K =  6 */
(PID.TID 0000.0001)                -6.500000000000000E+01,      /* K =  7 */
(PID.TID 0000.0001)                -7.500500000000000E+01,      /* K =  8 */
(PID.TID 0000.0001)                -8.502499999999999E+01,      /* K =  9 */
(PID.TID 0000.0001)                -9.509500000000000E+01,      /* K = 10 */
(PID.TID 0000.0001)                -1.053100000000000E+02,      /* K = 11 */
(PID.TID 0000.0001)                -1.158700000000000E+02,      /* K = 12 */
(PID.TID 0000.0001)                -1.271500000000000E+02,      /* K = 13 */
(PID.TID 0000.0001)                -1.397400000000000E+02,      /* K = 14 */
(PID.TID 0000.0001)                -1.544700000000000E+02,      /* K = 15 */
(PID.TID 0000.0001)                -1.724000000000000E+02,      /* K = 16 */
(PID.TID 0000.0001)                -1.947350000000000E+02,      /* K = 17 */
(PID.TID 0000.0001)                -2.227100000000000E+02,      /* K = 18 */
(PID.TID 0000.0001)                -2.574700000000000E+02,      /* K = 19 */
(PID.TID 0000.0001)                -2.999300000000000E+02,      /* K = 20 */
(PID.TID 0000.0001)                -3.506800000000000E+02,      /* K = 21 */
(PID.TID 0000.0001)                -4.099300000000000E+02,      /* K = 22 */
(PID.TID 0000.0001)                -4.774700000000000E+02,      /* K = 23 */
(PID.TID 0000.0001)                -5.527100000000000E+02,      /* K = 24 */
(PID.TID 0000.0001)                -6.347350000000000E+02,      /* K = 25 */
(PID.TID 0000.0001)                -7.224000000000000E+02,      /* K = 26 */
(PID.TID 0000.0001)                -8.144700000000000E+02,      /* K = 27 */
(PID.TID 0000.0001)                -9.097400000000000E+02,      /* K = 28 */
(PID.TID 0000.0001)                -1.007155000000000E+03,      /* K = 29 */
(PID.TID 0000.0001)                -1.105905000000000E+03,      /* K = 30 */
(PID.TID 0000.0001)                -1.205535000000000E+03,      /* K = 31 */
(PID.TID 0000.0001)                -1.306205000000000E+03,      /* K = 32 */
(PID.TID 0000.0001)                -1.409150000000000E+03,      /* K = 33 */
(PID.TID 0000.0001)                -1.517095000000000E+03,      /* K = 34 */
(PID.TID 0000.0001)                -1.634175000000000E+03,      /* K = 35 */
(PID.TID 0000.0001)                -1.765135000000000E+03,      /* K = 36 */
(PID.TID 0000.0001)                -1.914150000000000E+03,      /* K = 37 */
(PID.TID 0000.0001)                -2.084035000000000E+03,      /* K = 38 */
(PID.TID 0000.0001)                -2.276225000000000E+03,      /* K = 39 */
(PID.TID 0000.0001)                -2.491250000000000E+03,      /* K = 40 */
(PID.TID 0000.0001)                -2.729250000000000E+03,      /* K = 41 */
(PID.TID 0000.0001)                -2.990250000000000E+03,      /* K = 42 */
(PID.TID 0000.0001)                -3.274250000000000E+03,      /* K = 43 */
(PID.TID 0000.0001)                -3.581250000000000E+03,      /* K = 44 */
(PID.TID 0000.0001)                -3.911250000000000E+03,      /* K = 45 */
(PID.TID 0000.0001)                -4.264250000000000E+03,      /* K = 46 */
(PID.TID 0000.0001)                -4.640250000000000E+03,      /* K = 47 */
(PID.TID 0000.0001)                -5.039250000000000E+03,      /* K = 48 */
(PID.TID 0000.0001)                -5.461250000000000E+03,      /* K = 49 */
(PID.TID 0000.0001)                -5.906250000000000E+03       /* K = 50 */
(PID.TID 0000.0001)     ;
(PID.TID 0000.0001) rF =   /* W-Interf. R coordinate (  units of r ) */
(PID.TID 0000.0001)                 0.000000000000000E+00,      /* K =  1 */
(PID.TID 0000.0001)                -1.000000000000000E+01,      /* K =  2 */
(PID.TID 0000.0001)                -2.000000000000000E+01,      /* K =  3 */
(PID.TID 0000.0001)                -3.000000000000000E+01,      /* K =  4 */
(PID.TID 0000.0001)                -4.000000000000000E+01,      /* K =  5 */
(PID.TID 0000.0001)                -5.000000000000000E+01,      /* K =  6 */
(PID.TID 0000.0001)                -6.000000000000000E+01,      /* K =  7 */
(PID.TID 0000.0001)                -7.000000000000000E+01,      /* K =  8 */
(PID.TID 0000.0001)                -8.001000000000001E+01,      /* K =  9 */
(PID.TID 0000.0001)                -9.004000000000001E+01,      /* K = 10 */
(PID.TID 0000.0001)                -1.001500000000000E+02,      /* K = 11 */
(PID.TID 0000.0001)                -1.104700000000000E+02,      /* K = 12 */
(PID.TID 0000.0001)                -1.212700000000000E+02,      /* K = 13 */
(PID.TID 0000.0001)                -1.330300000000000E+02,      /* K = 14 */
(PID.TID 0000.0001)                -1.464500000000000E+02,      /* K = 15 */
(PID.TID 0000.0001)                -1.624900000000000E+02,      /* K = 16 */
(PID.TID 0000.0001)                -1.823100000000000E+02,      /* K = 17 */
(PID.TID 0000.0001)                -2.071600000000000E+02,      /* K = 18 */
(PID.TID 0000.0001)                -2.382600000000000E+02,      /* K = 19 */
(PID.TID 0000.0001)                -2.766799999999999E+02,      /* K = 20 */
(PID.TID 0000.0001)                -3.231799999999999E+02,      /* K = 21 */
(PID.TID 0000.0001)                -3.781799999999999E+02,      /* K = 22 */
(PID.TID 0000.0001)                -4.416799999999999E+02,      /* K = 23 */
(PID.TID 0000.0001)                -5.132600000000000E+02,      /* K = 24 */
(PID.TID 0000.0001)                -5.921600000000000E+02,      /* K = 25 */
(PID.TID 0000.0001)                -6.773099999999999E+02,      /* K = 26 */
(PID.TID 0000.0001)                -7.674900000000000E+02,      /* K = 27 */
(PID.TID 0000.0001)                -8.614500000000000E+02,      /* K = 28 */
(PID.TID 0000.0001)                -9.580300000000001E+02,      /* K = 29 */
(PID.TID 0000.0001)                -1.056280000000000E+03,      /* K = 30 */
(PID.TID 0000.0001)                -1.155530000000000E+03,      /* K = 31 */
(PID.TID 0000.0001)                -1.255540000000000E+03,      /* K = 32 */
(PID.TID 0000.0001)                -1.356870000000000E+03,      /* K = 33 */
(PID.TID 0000.0001)                -1.461430000000000E+03,      /* K = 34 */
(PID.TID 0000.0001)                -1.572760000000000E+03,      /* K = 35 */
(PID.TID 0000.0001)                -1.695590000000000E+03,      /* K = 36 */
(PID.TID 0000.0001)                -1.834680000000000E+03,      /* K = 37 */
(PID.TID 0000.0001)                -1.993620000000000E+03,      /* K = 38 */
(PID.TID 0000.0001)                -2.174450000000000E+03,      /* K = 39 */
(PID.TID 0000.0001)                -2.378000000000000E+03,      /* K = 40 */
(PID.TID 0000.0001)                -2.604500000000000E+03,      /* K = 41 */
(PID.TID 0000.0001)                -2.854000000000000E+03,      /* K = 42 */
(PID.TID 0000.0001)                -3.126500000000000E+03,      /* K = 43 */
(PID.TID 0000.0001)                -3.422000000000000E+03,      /* K = 44 */
(PID.TID 0000.0001)                -3.740500000000000E+03,      /* K = 45 */
(PID.TID 0000.0001)                -4.082000000000000E+03,      /* K = 46 */
(PID.TID 0000.0001)                -4.446500000000000E+03,      /* K = 47 */
(PID.TID 0000.0001)                -4.834000000000000E+03,      /* K = 48 */
(PID.TID 0000.0001)                -5.244500000000000E+03,      /* K = 49 */
(PID.TID 0000.0001)                -5.678000000000000E+03,      /* K = 50 */
(PID.TID 0000.0001)                -6.134500000000000E+03       /* K = 51 */
(PID.TID 0000.0001)     ;
(PID.TID 0000.0001) deepFacC = /* deep-model grid factor @ cell-Center (-) */
(PID.TID 0000.0001)    50 @  1.000000000000000E+00              /* K =  1: 50 */
(PID.TID 0000.0001)     ;
(PID.TID 0000.0001) deepFacF = /* deep-model grid factor @ W-Interface (-) */
(PID.TID 0000.0001)    51 @  1.000000000000000E+00              /* K =  1: 51 */
(PID.TID 0000.0001)     ;
(PID.TID 0000.0001) rVel2wUnit = /* convert units: rVel -> wSpeed (=1 if z-coord)*/
(PID.TID 0000.0001)    51 @  1.000000000000000E+00              /* K =  1: 51 */
(PID.TID 0000.0001)     ;
(PID.TID 0000.0001) wUnit2rVel = /* convert units: wSpeed -> rVel (=1 if z-coord)*/
(PID.TID 0000.0001)    51 @  1.000000000000000E+00              /* K =  1: 51 */
(PID.TID 0000.0001)     ;
(PID.TID 0000.0001) dBdrRef = /* Vertical grad. of reference buoyancy [(m/s/r)^2] */
(PID.TID 0000.0001)     3 @  0.000000000000000E+00,             /* K =  1:  3 */
(PID.TID 0000.0001)                 2.710009878211941E-04,      /* K =  4 */
(PID.TID 0000.0001)     2 @  0.000000000000000E+00,             /* K =  5:  6 */
(PID.TID 0000.0001)                 2.636625418269014E-04,      /* K =  7 */
(PID.TID 0000.0001)                 2.558031727841269E-04,      /* K =  8 */
(PID.TID 0000.0001)                 0.000000000000000E+00,      /* K =  9 */
(PID.TID 0000.0001)                 2.465097609409217E-04,      /* K = 10 */
(PID.TID 0000.0001)                 2.352100435611475E-04,      /* K = 11 */
(PID.TID 0000.0001)                 0.000000000000000E+00,      /* K = 12 */
(PID.TID 0000.0001)                 2.059824810681317E-04,      /* K = 13 */
(PID.TID 0000.0001)                 1.780333657351851E-04,      /* K = 14 */
(PID.TID 0000.0001)                 0.000000000000000E+00,      /* K = 15 */
(PID.TID 0000.0001)                 1.205267729858628E-04,      /* K = 16 */
(PID.TID 0000.0001)                 9.301885331159507E-05,      /* K = 17 */
(PID.TID 0000.0001)                 7.126049663232381E-05,      /* K = 18 */
(PID.TID 0000.0001)                 5.492180008088694E-05,      /* K = 19 */
(PID.TID 0000.0001)                 4.297011162312342E-05,      /* K = 20 */
(PID.TID 0000.0001)                 6.668082313416848E-05,      /* K = 21 */
(PID.TID 0000.0001)                 0.000000000000000E+00,      /* K = 22 */
(PID.TID 0000.0001)                 2.326903218052740E-05,      /* K = 23 */
(PID.TID 0000.0001)                 1.977341620137575E-05,      /* K = 24 */
(PID.TID 0000.0001)                 1.711721017074719E-05,      /* K = 25 */
(PID.TID 0000.0001)                 0.000000000000000E+00,      /* K = 26 */
(PID.TID 0000.0001)                 1.457272127111402E-05,      /* K = 27 */
(PID.TID 0000.0001)                 0.000000000000000E+00,      /* K = 28 */
(PID.TID 0000.0001)                 1.316856539126343E-05,      /* K = 29 */
(PID.TID 0000.0001)     2 @  0.000000000000000E+00,             /* K = 30: 31 */
(PID.TID 0000.0001)                 1.242324286947067E-05,      /* K = 32 */
(PID.TID 0000.0001)     2 @  0.000000000000000E+00,             /* K = 33: 34 */
(PID.TID 0000.0001)                 1.046164470422772E-05,      /* K = 35 */
(PID.TID 0000.0001)     3 @  0.000000000000000E+00,             /* K = 36: 38 */
(PID.TID 0000.0001)                 6.634176617958632E-06,      /* K = 39 */
(PID.TID 0000.0001)    11 @  0.000000000000000E+00              /* K = 40: 50 */
(PID.TID 0000.0001)     ;
(PID.TID 0000.0001) rotateGrid = /* use rotated grid ( True/False ) */
(PID.TID 0000.0001)                   F
(PID.TID 0000.0001)     ;
(PID.TID 0000.0001) phiEuler = /* Euler angle, rotation about original z-coordinate [rad] */
(PID.TID 0000.0001)                 0.000000000000000E+00
(PID.TID 0000.0001)     ;
(PID.TID 0000.0001) thetaEuler = /* Euler angle, rotation about new x-coordinate [rad] */
(PID.TID 0000.0001)                 0.000000000000000E+00
(PID.TID 0000.0001)     ;
(PID.TID 0000.0001) psiEuler = /* Euler angle, rotation about new z-coordinate [rad] */
(PID.TID 0000.0001)                 0.000000000000000E+00
(PID.TID 0000.0001)     ;
(PID.TID 0000.0001) dxF =  /* dxF(:,1,:,1) ( units: m ) */
(PID.TID 0000.0001)                 2.071152825743187E+04,      /* I =  1 */
(PID.TID 0000.0001)                 2.070365142756831E+04,      /* I =  2 */
(PID.TID 0000.0001)                 2.069635296570141E+04,      /* I =  3 */
(PID.TID 0000.0001)                 2.068965358413176E+04,      /* I =  4 */
(PID.TID 0000.0001)                 2.068357195583360E+04,      /* I =  5 */
(PID.TID 0000.0001)                 2.067812475356784E+04,      /* I =  6 */
(PID.TID 0000.0001)                 2.067332670125947E+04,      /* I =  7 */
(PID.TID 0000.0001)                 2.066919060389092E+04,      /* I =  8 */
(PID.TID 0000.0001)                 2.066572738985245E+04,      /* I =  9 */
(PID.TID 0000.0001)                 2.066294615597989E+04,      /* I = 10 */
(PID.TID 0000.0001)                 2.066085425372315E+04,      /* I = 11 */
(PID.TID 0000.0001)                 2.065945771525925E+04,      /* I = 12 */
(PID.TID 0000.0001)                 2.065874381268158E+04,      /* I = 13 */
(PID.TID 0000.0001)                 2.065874381268158E+04,      /* I = 14 */
(PID.TID 0000.0001)                 2.065945771525925E+04,      /* I = 15 */
(PID.TID 0000.0001)                 2.066085425372316E+04,      /* I = 16 */
(PID.TID 0000.0001)                 2.066294615597989E+04,      /* I = 17 */
(PID.TID 0000.0001)                 2.066572738985245E+04,      /* I = 18 */
(PID.TID 0000.0001)                 2.066919060389088E+04,      /* I = 19 */
(PID.TID 0000.0001)                 2.067332670125956E+04,      /* I = 20 */
(PID.TID 0000.0001)                 2.067812475356780E+04,      /* I = 21 */
(PID.TID 0000.0001)                 2.068357195583360E+04,      /* I = 22 */
(PID.TID 0000.0001)                 2.068965358413182E+04,      /* I = 23 */
(PID.TID 0000.0001)                 2.069635296570133E+04,      /* I = 24 */
(PID.TID 0000.0001)                 2.070365142756836E+04,      /* I = 25 */
(PID.TID 0000.0001)                 2.071152825743182E+04,      /* I = 26 */
(PID.TID 0000.0001)                 2.071996065138743E+04,      /* I = 27 */
(PID.TID 0000.0001)                 2.072892365863983E+04,      /* I = 28 */
(PID.TID 0000.0001)                 2.073839012765668E+04,      /* I = 29 */
(PID.TID 0000.0001)                 2.074833063718403E+04       /* I = 30 */
(PID.TID 0000.0001)     ;
(PID.TID 0000.0001) dxF =  /* dxF(1,:,1,:) ( units: m ) */
(PID.TID 0000.0001)                 2.071152825743187E+04,      /* J =  1 */
(PID.TID 0000.0001)                 2.109117491456033E+04,      /* J =  2 */
(PID.TID 0000.0001)                 2.148525648961724E+04,      /* J =  3 */
(PID.TID 0000.0001)                 2.189377348588603E+04,      /* J =  4 */
(PID.TID 0000.0001)                 2.231672440915243E+04,      /* J =  5 */
(PID.TID 0000.0001)                 2.275410689480659E+04,      /* J =  6 */
(PID.TID 0000.0001)                 2.320591873318126E+04,      /* J =  7 */
(PID.TID 0000.0001)                 2.367215879054831E+04,      /* J =  8 */
(PID.TID 0000.0001)                 2.415282782538908E+04,      /* J =  9 */
(PID.TID 0000.0001)                 2.464792920101809E+04,      /* J = 10 */
(PID.TID 0000.0001)                 2.515746949702995E+04,      /* J = 11 */
(PID.TID 0000.0001)                 2.568145902315334E+04,      /* J = 12 */
(PID.TID 0000.0001)                 2.621991223981432E+04,      /* J = 13 */
(PID.TID 0000.0001)                 2.677284809033052E+04,      /* J = 14 */
(PID.TID 0000.0001)                 2.734029025013979E+04,      /* J = 15 */
(PID.TID 0000.0001)                 2.792226729855568E+04,      /* J = 16 */
(PID.TID 0000.0001)                 2.851881281852892E+04,      /* J = 17 */
(PID.TID 0000.0001)                 2.912996543046302E+04,      /* J = 18 */
(PID.TID 0000.0001)                 2.975576876502299E+04,      /* J = 19 */
(PID.TID 0000.0001)                 3.039627138062681E+04,      /* J = 20 */
(PID.TID 0000.0001)                 3.105152663065675E+04,      /* J = 21 */
(PID.TID 0000.0001)                 3.172159248542454E+04,      /* J = 22 */
(PID.TID 0000.0001)                 3.240653131349731E+04,      /* J = 23 */
(PID.TID 0000.0001)                 3.310640962675057E+04,      /* J = 24 */
(PID.TID 0000.0001)                 3.382129779388320E+04,      /* J = 25 */
(PID.TID 0000.0001)                 3.455126972555294E+04,      /* J = 26 */
(PID.TID 0000.0001)                 3.529640253603521E+04,      /* J = 27 */
(PID.TID 0000.0001)                 3.605677618612848E+04,      /* J = 28 */
(PID.TID 0000.0001)                 3.683247311866502E+04,      /* J = 29 */
(PID.TID 0000.0001)                 3.762357793548112E+04       /* J = 30 */
(PID.TID 0000.0001)     ;
(PID.TID 0000.0001) dyF =  /* dyF(:,1,:,1) ( units: m ) */
(PID.TID 0000.0001)                 3.700742300337598E+04,      /* I =  1 */
(PID.TID 0000.0001)                 3.707905556394973E+04,      /* I =  2 */
(PID.TID 0000.0001)                 3.714471828319018E+04,      /* I =  3 */
(PID.TID 0000.0001)                 3.720441078960103E+04,      /* I =  4 */
(PID.TID 0000.0001)                 3.725813297080282E+04,      /* I =  5 */
(PID.TID 0000.0001)                 3.730588490725751E+04,      /* I =  6 */
(PID.TID 0000.0001)                 3.734766681359038E+04,      /* I =  7 */
(PID.TID 0000.0001)                 3.738347898712025E+04,      /* I =  8 */
(PID.TID 0000.0001)                 3.741332176340629E+04,      /* I =  9 */
(PID.TID 0000.0001)                 3.743719547859261E+04,      /* I = 10 */
(PID.TID 0000.0001)                 3.745510043824806E+04,      /* I = 11 */
(PID.TID 0000.0001)                 3.746703689267323E+04,      /* I = 12 */
(PID.TID 0000.0001)     2 @  3.747300501832417E+04,             /* I = 13: 14 */
(PID.TID 0000.0001)                 3.746703689267323E+04,      /* I = 15 */
(PID.TID 0000.0001)                 3.745510043824806E+04,      /* I = 16 */
(PID.TID 0000.0001)                 3.743719547859261E+04,      /* I = 17 */
(PID.TID 0000.0001)                 3.741332176340628E+04,      /* I = 18 */
(PID.TID 0000.0001)                 3.738347898712024E+04,      /* I = 19 */
(PID.TID 0000.0001)                 3.734766681359040E+04,      /* I = 20 */
(PID.TID 0000.0001)                 3.730588490725750E+04,      /* I = 21 */
(PID.TID 0000.0001)                 3.725813297080281E+04,      /* I = 22 */
(PID.TID 0000.0001)                 3.720441078960103E+04,      /* I = 23 */
(PID.TID 0000.0001)                 3.714471828319017E+04,      /* I = 24 */
(PID.TID 0000.0001)                 3.707905556394973E+04,      /* I = 25 */
(PID.TID 0000.0001)                 3.700742300337599E+04,      /* I = 26 */
(PID.TID 0000.0001)                 3.692982130617692E+04,      /* I = 27 */
(PID.TID 0000.0001)                 3.684625159269555E+04,      /* I = 28 */
(PID.TID 0000.0001)                 3.675671548992459E+04,      /* I = 29 */
(PID.TID 0000.0001)                 3.666121523181524E+04       /* I = 30 */
(PID.TID 0000.0001)     ;
(PID.TID 0000.0001) dyF =  /* dyF(1,:,1,:) ( units: m ) */
(PID.TID 0000.0001)                 3.700742300337598E+04,      /* J =  1 */
(PID.TID 0000.0001)                 3.745555642044499E+04,      /* J =  2 */
(PID.TID 0000.0001)                 3.790206217653974E+04,      /* J =  3 */
(PID.TID 0000.0001)                 3.834684105117956E+04,      /* J =  4 */
(PID.TID 0000.0001)                 3.878979459357282E+04,      /* J =  5 */
(PID.TID 0000.0001)                 3.923082521328924E+04,      /* J =  6 */
(PID.TID 0000.0001)                 3.966983623246408E+04,      /* J =  7 */
(PID.TID 0000.0001)                 4.010673190475840E+04,      /* J =  8 */
(PID.TID 0000.0001)                 4.054141740950450E+04,      /* J =  9 */
(PID.TID 0000.0001)                 4.097379882434454E+04,      /* J = 10 */
(PID.TID 0000.0001)                 4.140378308084428E+04,      /* J = 11 */
(PID.TID 0000.0001)                 4.183127790875583E+04,      /* J = 12 */
(PID.TID 0000.0001)                 4.225619177206317E+04,      /* J = 13 */
(PID.TID 0000.0001)                 4.267843379867976E+04,      /* J = 14 */
(PID.TID 0000.0001)                 4.309791371221616E+04,      /* J = 15 */
(PID.TID 0000.0001)                 4.351454176087940E+04,      /* J = 16 */
(PID.TID 0000.0001)                 4.392822864881465E+04,      /* J = 17 */
(PID.TID 0000.0001)                 4.433888547805120E+04,      /* J = 18 */
(PID.TID 0000.0001)                 4.474642369096899E+04,      /* J = 19 */
(PID.TID 0000.0001)                 4.515075502217317E+04,      /* J = 20 */
(PID.TID 0000.0001)                 4.555179145554101E+04,      /* J = 21 */
(PID.TID 0000.0001)                 4.594944520275577E+04,      /* J = 22 */
(PID.TID 0000.0001)                 4.634362867401398E+04,      /* J = 23 */
(PID.TID 0000.0001)                 4.673425447947427E+04,      /* J = 24 */
(PID.TID 0000.0001)                 4.712123544873745E+04,      /* J = 25 */
(PID.TID 0000.0001)                 4.750448467975499E+04,      /* J = 26 */
(PID.TID 0000.0001)                 4.788391567392174E+04,      /* J = 27 */
(PID.TID 0000.0001)                 4.825944271092693E+04,      /* J = 28 */
(PID.TID 0000.0001)                 4.863098220111143E+04,      /* J = 29 */
(PID.TID 0000.0001)                 4.899845499569884E+04       /* J = 30 */
(PID.TID 0000.0001)     ;
(PID.TID 0000.0001) dxG =  /* dxG(:,1,:,1) ( units: m ) */
(PID.TID 0000.0001)                 2.052711702021451E+04,      /* I =  1 */
(PID.TID 0000.0001)                 2.051953983526162E+04,      /* I =  2 */
(PID.TID 0000.0001)                 2.051251425926268E+04,      /* I =  3 */
(PID.TID 0000.0001)                 2.050606148013825E+04,      /* I =  4 */
(PID.TID 0000.0001)                 2.050020059906299E+04,      /* I =  5 */
(PID.TID 0000.0001)                 2.049494867086169E+04,      /* I =  6 */
(PID.TID 0000.0001)                 2.049032075633103E+04,      /* I =  7 */
(PID.TID 0000.0001)                 2.048632995314923E+04,      /* I =  8 */
(PID.TID 0000.0001)                 2.048298743895549E+04,      /* I =  9 */
(PID.TID 0000.0001)                 2.048030251694177E+04,      /* I = 10 */
(PID.TID 0000.0001)                 2.047828270203973E+04,      /* I = 11 */
(PID.TID 0000.0001)                 2.047693414389448E+04,      /* I = 12 */
(PID.TID 0000.0001)     2 @  2.047624433858785E+04,             /* I = 13: 14 */
(PID.TID 0000.0001)                 2.047693414389443E+04,      /* I = 15 */
(PID.TID 0000.0001)                 2.047828270203978E+04,      /* I = 16 */
(PID.TID 0000.0001)                 2.048030251694177E+04,      /* I = 17 */
(PID.TID 0000.0001)                 2.048298743895548E+04,      /* I = 18 */
(PID.TID 0000.0001)                 2.048632995314927E+04,      /* I = 19 */
(PID.TID 0000.0001)                 2.049032075633093E+04,      /* I = 20 */
(PID.TID 0000.0001)                 2.049494867086174E+04,      /* I = 21 */
(PID.TID 0000.0001)                 2.050020059906297E+04,      /* I = 22 */
(PID.TID 0000.0001)                 2.050606148013830E+04,      /* I = 23 */
(PID.TID 0000.0001)                 2.051251425926268E+04,      /* I = 24 */
(PID.TID 0000.0001)                 2.051953983526163E+04,      /* I = 25 */
(PID.TID 0000.0001)                 2.052711702021443E+04,      /* I = 26 */
(PID.TID 0000.0001)                 2.053522248594683E+04,      /* I = 27 */
(PID.TID 0000.0001)                 2.054383070727552E+04,      /* I = 28 */
(PID.TID 0000.0001)                 2.055291390664790E+04,      /* I = 29 */
(PID.TID 0000.0001)                 2.056244198352907E+04       /* I = 30 */
(PID.TID 0000.0001)     ;
(PID.TID 0000.0001) dxG =  /* dxG(1,:,1,:) ( units: m ) */
(PID.TID 0000.0001)                 2.052711702021451E+04,      /* J =  1 */
(PID.TID 0000.0001)                 2.089954736357391E+04,      /* J =  2 */
(PID.TID 0000.0001)                 2.128641124518697E+04,      /* J =  3 */
(PID.TID 0000.0001)                 2.168771062037700E+04,      /* J =  4 */
(PID.TID 0000.0001)                 2.210344484655194E+04,      /* J =  5 */
(PID.TID 0000.0001)                 2.253361185972884E+04,      /* J =  6 */
(PID.TID 0000.0001)                 2.297820925105574E+04,      /* J =  7 */
(PID.TID 0000.0001)                 2.343723524028478E+04,      /* J =  8 */
(PID.TID 0000.0001)                 2.391068954427550E+04,      /* J =  9 */
(PID.TID 0000.0001)                 2.439857414125275E+04,      /* J = 10 */
(PID.TID 0000.0001)                 2.490089393241153E+04,      /* J = 11 */
(PID.TID 0000.0001)                 2.541765730414359E+04,      /* J = 12 */
(PID.TID 0000.0001)                 2.594887659459613E+04,      /* J = 13 */
(PID.TID 0000.0001)                 2.649456846940333E+04,      /* J = 14 */
(PID.TID 0000.0001)                 2.705475421181358E+04,      /* J = 15 */
(PID.TID 0000.0001)                 2.762945993231310E+04,      /* J = 16 */
(PID.TID 0000.0001)                 2.821871670385097E+04,      /* J = 17 */
(PID.TID 0000.0001)                 2.882256062780631E+04,      /* J = 18 */
(PID.TID 0000.0001)                 2.944103283669238E+04,      /* J = 19 */
(PID.TID 0000.0001)                 3.007417943861200E+04,      /* J = 20 */
(PID.TID 0000.0001)                 3.072205140902393E+04,      /* J = 21 */
(PID.TID 0000.0001)                 3.138470443467240E+04,      /* J = 22 */
(PID.TID 0000.0001)                 3.206219871470027E+04,      /* J = 23 */
(PID.TID 0000.0001)                 3.275459872326910E+04,      /* J = 24 */
(PID.TID 0000.0001)                 3.346197293831744E+04,      /* J = 25 */
(PID.TID 0000.0001)                 3.418439354048331E+04,      /* J = 26 */
(PID.TID 0000.0001)                 3.492193608585089E+04,      /* J = 27 */
(PID.TID 0000.0001)                 3.567467915738818E+04,      /* J = 28 */
(PID.TID 0000.0001)                 3.644270400216877E+04,      /* J = 29 */
(PID.TID 0000.0001)                 3.722609417427087E+04       /* J = 30 */
(PID.TID 0000.0001)     ;
(PID.TID 0000.0001) dyG =  /* dyG(:,1,:,1) ( units: m ) */
(PID.TID 0000.0001)                 3.696936823759973E+04,      /* I =  1 */
(PID.TID 0000.0001)                 3.704398547852144E+04,      /* I =  2 */
(PID.TID 0000.0001)                 3.711263318385338E+04,      /* I =  3 */
(PID.TID 0000.0001)                 3.717531082528212E+04,      /* I =  4 */
(PID.TID 0000.0001)                 3.723201816961422E+04,      /* I =  5 */
(PID.TID 0000.0001)                 3.728275520872145E+04,      /* I =  6 */
(PID.TID 0000.0001)                 3.732752209699158E+04,      /* I =  7 */
(PID.TID 0000.0001)                 3.736631909640826E+04,      /* I =  8 */
(PID.TID 0000.0001)                 3.739914652852553E+04,      /* I =  9 */
(PID.TID 0000.0001)                 3.742600473350589E+04,      /* I = 10 */
(PID.TID 0000.0001)                 3.744689403567852E+04,      /* I = 11 */
(PID.TID 0000.0001)                 3.746181471567877E+04,      /* I = 12 */
(PID.TID 0000.0001)                 3.747076698884368E+04,      /* I = 13 */
(PID.TID 0000.0001)                 3.747376174977726E+04,      /* I = 14 */
(PID.TID 0000.0001)                 3.747076698884368E+04,      /* I = 15 */
(PID.TID 0000.0001)                 3.746181471567877E+04,      /* I = 16 */
(PID.TID 0000.0001)                 3.744689403567852E+04,      /* I = 17 */
(PID.TID 0000.0001)                 3.742600473350589E+04,      /* I = 18 */
(PID.TID 0000.0001)                 3.739914652852552E+04,      /* I = 19 */
(PID.TID 0000.0001)                 3.736631909640826E+04,      /* I = 20 */
(PID.TID 0000.0001)                 3.732752209699157E+04,      /* I = 21 */
(PID.TID 0000.0001)                 3.728275520872146E+04,      /* I = 22 */
(PID.TID 0000.0001)                 3.723201816961422E+04,      /* I = 23 */
(PID.TID 0000.0001)                 3.717531082528211E+04,      /* I = 24 */
(PID.TID 0000.0001)                 3.711263318385338E+04,      /* I = 25 */
(PID.TID 0000.0001)                 3.704398547852145E+04,      /* I = 26 */
(PID.TID 0000.0001)                 3.696936823759972E+04,      /* I = 27 */
(PID.TID 0000.0001)                 3.688878236278851E+04,      /* I = 28 */
(PID.TID 0000.0001)                 3.680222921581766E+04,      /* I = 29 */
(PID.TID 0000.0001)                 3.670971071402137E+04       /* I = 30 */
(PID.TID 0000.0001)     ;
(PID.TID 0000.0001) dyG =  /* dyG(1,:,1,:) ( units: m ) */
(PID.TID 0000.0001)                 3.696936823759973E+04,      /* J =  1 */
(PID.TID 0000.0001)                 3.741746190559281E+04,      /* J =  2 */
(PID.TID 0000.0001)                 3.786390067184393E+04,      /* J =  3 */
(PID.TID 0000.0001)                 3.830858172733455E+04,      /* J =  4 */
(PID.TID 0000.0001)                 3.875140319955796E+04,      /* J =  5 */
(PID.TID 0000.0001)                 3.919226424948571E+04,      /* J =  6 */
(PID.TID 0000.0001)                 3.963106512715793E+04,      /* J =  7 */
(PID.TID 0000.0001)                 4.006770719102380E+04,      /* J =  8 */
(PID.TID 0000.0001)                 4.050209290047463E+04,      /* J =  9 */
(PID.TID 0000.0001)                 4.093412578484027E+04,      /* J = 10 */
(PID.TID 0000.0001)                 4.136371039407872E+04,      /* J = 11 */
(PID.TID 0000.0001)                 4.179075223673176E+04,      /* J = 12 */
(PID.TID 0000.0001)                 4.221515770920290E+04,      /* J = 13 */
(PID.TID 0000.0001)                 4.263683401805614E+04,      /* J = 14 */
(PID.TID 0000.0001)                 4.305568910412182E+04,      /* J = 15 */
(PID.TID 0000.0001)                 4.347163156363047E+04,      /* J = 16 */
(PID.TID 0000.0001)                 4.388457057225752E+04,      /* J = 17 */
(PID.TID 0000.0001)                 4.429441581934092E+04,      /* J = 18 */
(PID.TID 0000.0001)                 4.470107744374240E+04,      /* J = 19 */
(PID.TID 0000.0001)                 4.510446597891348E+04,      /* J = 20 */
(PID.TID 0000.0001)                 4.550449230395439E+04,      /* J = 21 */
(PID.TID 0000.0001)                 4.590106761654920E+04,      /* J = 22 */
(PID.TID 0000.0001)                 4.629410339849156E+04,      /* J = 23 */
(PID.TID 0000.0001)                 4.668351141269982E+04,      /* J = 24 */
(PID.TID 0000.0001)                 4.706920371856177E+04,      /* J = 25 */
(PID.TID 0000.0001)                 4.745109271730031E+04,      /* J = 26 */
(PID.TID 0000.0001)                 4.782909128417812E+04,      /* J = 27 */
(PID.TID 0000.0001)                 4.820311314005602E+04,      /* J = 28 */
(PID.TID 0000.0001)                 4.857307420014453E+04,      /* J = 29 */
(PID.TID 0000.0001)                 4.893889490827491E+04       /* J = 30 */
(PID.TID 0000.0001)     ;
(PID.TID 0000.0001) dxC =  /* dxC(:,1,:,1) ( units: m ) */
(PID.TID 0000.0001)                 2.071567651695695E+04,      /* I =  1 */
(PID.TID 0000.0001)                 2.070751892245589E+04,      /* I =  2 */
(PID.TID 0000.0001)                 2.069992855779408E+04,      /* I =  3 */
(PID.TID 0000.0001)                 2.069292717562287E+04,      /* I =  4 */
(PID.TID 0000.0001)                 2.068653446229046E+04,      /* I =  5 */
(PID.TID 0000.0001)                 2.068076808552306E+04,      /* I =  6 */
(PID.TID 0000.0001)                 2.067564373903614E+04,      /* I =  7 */
(PID.TID 0000.0001)                 2.067117518190149E+04,      /* I =  8 */
(PID.TID 0000.0001)                 2.066737427558298E+04,      /* I =  9 */
(PID.TID 0000.0001)                 2.066425102685107E+04,      /* I = 10 */
(PID.TID 0000.0001)                 2.066181364132844E+04,      /* I = 11 */
(PID.TID 0000.0001)                 2.066006869803818E+04,      /* I = 12 */
(PID.TID 0000.0001)                 2.065902266229015E+04,      /* I = 13 */
(PID.TID 0000.0001)                 2.065863826775786E+04,      /* I = 14 */
(PID.TID 0000.0001)                 2.065902266229016E+04,      /* I = 15 */
(PID.TID 0000.0001)                 2.066006869803813E+04,      /* I = 16 */
(PID.TID 0000.0001)                 2.066181364132850E+04,      /* I = 17 */
(PID.TID 0000.0001)                 2.066425102685108E+04,      /* I = 18 */
(PID.TID 0000.0001)                 2.066737427558298E+04,      /* I = 19 */
(PID.TID 0000.0001)                 2.067117518190149E+04,      /* I = 20 */
(PID.TID 0000.0001)                 2.067564373903615E+04,      /* I = 21 */
(PID.TID 0000.0001)                 2.068076808552304E+04,      /* I = 22 */
(PID.TID 0000.0001)                 2.068653446229045E+04,      /* I = 23 */
(PID.TID 0000.0001)                 2.069292717562287E+04,      /* I = 24 */
(PID.TID 0000.0001)                 2.069992855779413E+04,      /* I = 25 */
(PID.TID 0000.0001)                 2.070751892245584E+04,      /* I = 26 */
(PID.TID 0000.0001)                 2.071567651695691E+04,      /* I = 27 */
(PID.TID 0000.0001)                 2.072437747324421E+04,      /* I = 28 */
(PID.TID 0000.0001)                 2.073359574551806E+04,      /* I = 29 */
(PID.TID 0000.0001)                 2.074330305575613E+04       /* I = 30 */
(PID.TID 0000.0001)     ;
(PID.TID 0000.0001) dxC =  /* dxC(1,:,1,:) ( units: m ) */
(PID.TID 0000.0001)                 2.071567651695695E+04,      /* J =  1 */
(PID.TID 0000.0001)                 2.109563672137949E+04,      /* J =  2 */
(PID.TID 0000.0001)                 2.149002149497106E+04,      /* J =  3 */
(PID.TID 0000.0001)                 2.189882927482529E+04,      /* J =  4 */
(PID.TID 0000.0001)                 2.232205646389843E+04,      /* J =  5 */
(PID.TID 0000.0001)                 2.275969855854128E+04,      /* J =  6 */
(PID.TID 0000.0001)                 2.321175117362029E+04,      /* J =  7 */
(PID.TID 0000.0001)                 2.367821096276529E+04,      /* J =  8 */
(PID.TID 0000.0001)                 2.415907643347346E+04,      /* J =  9 */
(PID.TID 0000.0001)                 2.465434865814045E+04,      /* J = 10 */
(PID.TID 0000.0001)                 2.516403188365780E+04,      /* J = 11 */
(PID.TID 0000.0001)                 2.568813404310613E+04,      /* J = 12 */
(PID.TID 0000.0001)                 2.622666717399572E+04,      /* J = 13 */
(PID.TID 0000.0001)                 2.677964774799169E+04,      /* J = 14 */
(PID.TID 0000.0001)                 2.734709691757753E+04,      /* J = 15 */
(PID.TID 0000.0001)                 2.792904068517491E+04,      /* J = 16 */
(PID.TID 0000.0001)                 2.852551000032625E+04,      /* J = 17 */
(PID.TID 0000.0001)                 2.913654079081990E+04,      /* J = 18 */
(PID.TID 0000.0001)                 2.976217393306023E+04,      /* J = 19 */
(PID.TID 0000.0001)                 3.040245516699173E+04,      /* J = 20 */
(PID.TID 0000.0001)                 3.105743496108396E+04,      /* J = 21 */
(PID.TID 0000.0001)                 3.172716833208323E+04,      /* J = 22 */
(PID.TID 0000.0001)                 3.241171462422546E+04,      /* J = 23 */
(PID.TID 0000.0001)                 3.311113725244482E+04,      /* J = 24 */
(PID.TID 0000.0001)                 3.382550341391024E+04,      /* J = 25 */
(PID.TID 0000.0001)                 3.455488377140061E+04,      /* J = 26 */
(PID.TID 0000.0001)                 3.529935211332738E+04,      /* J = 27 */
(PID.TID 0000.0001)                 3.605898499520765E+04,      /* J = 28 */
(PID.TID 0000.0001)                 3.683386137397906E+04,      /* J = 29 */
(PID.TID 0000.0001)                 3.762406228407349E+04       /* J = 30 */
(PID.TID 0000.0001)     ;
(PID.TID 0000.0001) dyC =  /* dyC(:,1,:,1) ( units: m ) */
(PID.TID 0000.0001)                 3.678277710845771E+04,      /* I =  1 */
(PID.TID 0000.0001)                 3.685438685866048E+04,      /* I =  2 */
(PID.TID 0000.0001)                 3.692002588020908E+04,      /* I =  3 */
(PID.TID 0000.0001)                 3.697969453541307E+04,      /* I =  4 */
(PID.TID 0000.0001)                 3.703339337607873E+04,      /* I =  5 */
(PID.TID 0000.0001)                 3.708112307814123E+04,      /* I =  6 */
(PID.TID 0000.0001)                 3.712288438364359E+04,      /* I =  7 */
(PID.TID 0000.0001)                 3.715867804995441E+04,      /* I =  8 */
(PID.TID 0000.0001)                 3.718850480589901E+04,      /* I =  9 */
(PID.TID 0000.0001)                 3.721236531452968E+04,      /* I = 10 */
(PID.TID 0000.0001)                 3.723026014246432E+04,      /* I = 11 */
(PID.TID 0000.0001)                 3.724218973548726E+04,      /* I = 12 */
(PID.TID 0000.0001)     2 @  3.724815440020872E+04,             /* I = 13: 14 */
(PID.TID 0000.0001)                 3.724218973548726E+04,      /* I = 15 */
(PID.TID 0000.0001)                 3.723026014246432E+04,      /* I = 16 */
(PID.TID 0000.0001)                 3.721236531452968E+04,      /* I = 17 */
(PID.TID 0000.0001)                 3.718850480589901E+04,      /* I = 18 */
(PID.TID 0000.0001)                 3.715867804995440E+04,      /* I = 19 */
(PID.TID 0000.0001)                 3.712288438364359E+04,      /* I = 20 */
(PID.TID 0000.0001)                 3.708112307814122E+04,      /* I = 21 */
(PID.TID 0000.0001)                 3.703339337607873E+04,      /* I = 22 */
(PID.TID 0000.0001)                 3.697969453541307E+04,      /* I = 23 */
(PID.TID 0000.0001)                 3.692002588020908E+04,      /* I = 24 */
(PID.TID 0000.0001)                 3.685438685866047E+04,      /* I = 25 */
(PID.TID 0000.0001)                 3.678277710845772E+04,      /* I = 26 */
(PID.TID 0000.0001)                 3.670519653011381E+04,      /* I = 27 */
(PID.TID 0000.0001)                 3.662164536844059E+04,      /* I = 28 */
(PID.TID 0000.0001)                 3.653212430257830E+04,      /* I = 29 */
(PID.TID 0000.0001)                 3.643663454523116E+04       /* I = 30 */
(PID.TID 0000.0001)     ;
(PID.TID 0000.0001) dyC =  /* dyC(1,:,1,:) ( units: m ) */
(PID.TID 0000.0001)                 3.678277710845771E+04,      /* J =  1 */
(PID.TID 0000.0001)                 3.723168694115569E+04,      /* J =  2 */
(PID.TID 0000.0001)                 3.767901897410101E+04,      /* J =  3 */
(PID.TID 0000.0001)                 3.812467364657602E+04,      /* J =  4 */
(PID.TID 0000.0001)                 3.856855210935249E+04,      /* J =  5 */
(PID.TID 0000.0001)                 3.901055633269680E+04,      /* J =  6 */
(PID.TID 0000.0001)                 3.945058917911859E+04,      /* J =  7 */
(PID.TID 0000.0001)                 3.988855443472220E+04,      /* J =  8 */
(PID.TID 0000.0001)                 4.032435681898361E+04,      /* J =  9 */
(PID.TID 0000.0001)                 4.075790196435841E+04,      /* J = 10 */
(PID.TID 0000.0001)                 4.118909638222960E+04,      /* J = 11 */
(PID.TID 0000.0001)                 4.161784741043697E+04,      /* J = 12 */
(PID.TID 0000.0001)                 4.204406315499045E+04,      /* J = 13 */
(PID.TID 0000.0001)                 4.246765242091182E+04,      /* J = 14 */
(PID.TID 0000.0001)                 4.288852464034393E+04,      /* J = 15 */
(PID.TID 0000.0001)                 4.330658981118225E+04,      /* J = 16 */
(PID.TID 0000.0001)                 4.372175841431943E+04,      /* J = 17 */
(PID.TID 0000.0001)                 4.413394136293020E+04,      /* J = 18 */
(PID.TID 0000.0001)                 4.454304993440304E+04,      /* J = 19 */
(PID.TID 0000.0001)                 4.494899572325061E+04,      /* J = 20 */
(PID.TID 0000.0001)                 4.535169059286820E+04,      /* J = 21 */
(PID.TID 0000.0001)                 4.575104664412256E+04,      /* J = 22 */
(PID.TID 0000.0001)                 4.614697618947234E+04,      /* J = 23 */
(PID.TID 0000.0001)                 4.653939173844085E+04,      /* J = 24 */
(PID.TID 0000.0001)                 4.692820600744408E+04,      /* J = 25 */
(PID.TID 0000.0001)                 4.731333194957835E+04,      /* J = 26 */
(PID.TID 0000.0001)                 4.769468283927006E+04,      /* J = 27 */
(PID.TID 0000.0001)                 4.807217249390641E+04,      /* J = 28 */
(PID.TID 0000.0001)                 4.844571593362943E+04,      /* J = 29 */
(PID.TID 0000.0001)                 4.881523285497380E+04       /* J = 30 */
(PID.TID 0000.0001)     ;
(PID.TID 0000.0001) dxV =  /* dxV(:,1,:,1) ( units: m ) */
(PID.TID 0000.0001)                 2.053110526075532E+04,      /* I =  1 */
(PID.TID 0000.0001)                 2.052326088418283E+04,      /* I =  2 */
(PID.TID 0000.0001)                 2.051595672244828E+04,      /* I =  3 */
(PID.TID 0000.0001)                 2.050921502797681E+04,      /* I =  4 */
(PID.TID 0000.0001)                 2.050305593886370E+04,      /* I =  5 */
(PID.TID 0000.0001)                 2.049749752783181E+04,      /* I =  6 */
(PID.TID 0000.0001)                 2.049255584793284E+04,      /* I =  7 */
(PID.TID 0000.0001)                 2.048824497292525E+04,      /* I =  8 */
(PID.TID 0000.0001)                 2.048457703515834E+04,      /* I =  9 */
(PID.TID 0000.0001)                 2.048156226915133E+04,      /* I = 10 */
(PID.TID 0000.0001)                 2.047920906551970E+04,      /* I = 11 */
(PID.TID 0000.0001)                 2.047752414469434E+04,      /* I = 12 */
(PID.TID 0000.0001)                 2.047651405696554E+04,      /* I = 13 */
(PID.TID 0000.0001)                 2.047614194664622E+04,      /* I = 14 */
(PID.TID 0000.0001)                 2.047651405696559E+04,      /* I = 15 */
(PID.TID 0000.0001)                 2.047752414469430E+04,      /* I = 16 */
(PID.TID 0000.0001)                 2.047920906551971E+04,      /* I = 17 */
(PID.TID 0000.0001)                 2.048156226915138E+04,      /* I = 18 */
(PID.TID 0000.0001)                 2.048457703515829E+04,      /* I = 19 */
(PID.TID 0000.0001)                 2.048824497292535E+04,      /* I = 20 */
(PID.TID 0000.0001)                 2.049255584793274E+04,      /* I = 21 */
(PID.TID 0000.0001)                 2.049749752783187E+04,      /* I = 22 */
(PID.TID 0000.0001)                 2.050305593886373E+04,      /* I = 23 */
(PID.TID 0000.0001)                 2.050921502797675E+04,      /* I = 24 */
(PID.TID 0000.0001)                 2.051595672244826E+04,      /* I = 25 */
(PID.TID 0000.0001)                 2.052326088418290E+04,      /* I = 26 */
(PID.TID 0000.0001)                 2.053110526075532E+04,      /* I = 27 */
(PID.TID 0000.0001)                 2.053946543494557E+04,      /* I = 28 */
(PID.TID 0000.0001)                 2.054831476098181E+04,      /* I = 29 */
(PID.TID 0000.0001)                 2.055762430839241E+04       /* I = 30 */
(PID.TID 0000.0001)     ;
(PID.TID 0000.0001) dxV =  /* dxV(1,:,1,:) ( units: m ) */
(PID.TID 0000.0001)                 2.053110526075532E+04,      /* J =  1 */
(PID.TID 0000.0001)                 2.090385356266093E+04,      /* J =  2 */
(PID.TID 0000.0001)                 2.129102607314009E+04,      /* J =  3 */
(PID.TID 0000.0001)                 2.169262269996662E+04,      /* J =  4 */
(PID.TID 0000.0001)                 2.210864071595607E+04,      /* J =  5 */
(PID.TID 0000.0001)                 2.253907593617405E+04,      /* J =  6 */
(PID.TID 0000.0001)                 2.298392379458377E+04,      /* J =  7 */
(PID.TID 0000.0001)                 2.344318031700113E+04,      /* J =  8 */
(PID.TID 0000.0001)                 2.391684298864163E+04,      /* J =  9 */
(PID.TID 0000.0001)                 2.440491151699962E+04,      /* J = 10 */
(PID.TID 0000.0001)                 2.490738849171163E+04,      /* J = 11 */
(PID.TID 0000.0001)                 2.542427994477456E+04,      /* J = 12 */
(PID.TID 0000.0001)                 2.595559581485789E+04,      /* J = 13 */
(PID.TID 0000.0001)                 2.650135032062733E+04,      /* J = 14 */
(PID.TID 0000.0001)                 2.706156224833991E+04,      /* J = 15 */
(PID.TID 0000.0001)                 2.763625515890197E+04,      /* J = 16 */
(PID.TID 0000.0001)                 2.822545752042790E+04,      /* J = 17 */
(PID.TID 0000.0001)                 2.882920277162976E+04,      /* J = 18 */
(PID.TID 0000.0001)                 2.944752932187136E+04,      /* J = 19 */
(PID.TID 0000.0001)                 3.008048049319959E+04,      /* J = 20 */
(PID.TID 0000.0001)                 3.072810440966728E+04,      /* J = 21 */
(PID.TID 0000.0001)                 3.139045383903842E+04,      /* J = 22 */
(PID.TID 0000.0001)                 3.206758599174654E+04,      /* J = 23 */
(PID.TID 0000.0001)                 3.275956228156967E+04,      /* J = 24 */
(PID.TID 0000.0001)                 3.346644805244220E+04,      /* J = 25 */
(PID.TID 0000.0001)                 3.418831227550044E+04,      /* J = 26 */
(PID.TID 0000.0001)                 3.492522722017510E+04,      /* J = 27 */
(PID.TID 0000.0001)                 3.567726810399632E+04,      /* J = 28 */
(PID.TID 0000.0001)                 3.644451272859776E+04,      /* J = 29 */
(PID.TID 0000.0001)                 3.722704112152557E+04       /* J = 30 */
(PID.TID 0000.0001)     ;
(PID.TID 0000.0001) dyU =  /* dyU(:,1,:,1) ( units: m ) */
(PID.TID 0000.0001)                 3.674473316658630E+04,      /* I =  1 */
(PID.TID 0000.0001)                 3.681932833792822E+04,      /* I =  2 */
(PID.TID 0000.0001)                 3.688795269313092E+04,      /* I =  3 */
(PID.TID 0000.0001)                 3.695060647275718E+04,      /* I =  4 */
(PID.TID 0000.0001)                 3.700729014250917E+04,      /* I =  5 */
(PID.TID 0000.0001)                 3.705800432398131E+04,      /* I =  6 */
(PID.TID 0000.0001)                 3.710274973294064E+04,      /* I =  7 */
(PID.TID 0000.0001)                 3.714152712500728E+04,      /* I =  8 */
(PID.TID 0000.0001)                 3.717433724834998E+04,      /* I =  9 */
(PID.TID 0000.0001)                 3.720118080314009E+04,      /* I = 10 */
(PID.TID 0000.0001)                 3.722205840764935E+04,      /* I = 11 */
(PID.TID 0000.0001)                 3.723697057073888E+04,      /* I = 12 */
(PID.TID 0000.0001)                 3.724591767054543E+04,      /* I = 13 */
(PID.TID 0000.0001)                 3.724891083990022E+04,      /* I = 14 */
(PID.TID 0000.0001)                 3.724591767054542E+04,      /* I = 15 */
(PID.TID 0000.0001)                 3.723697057073889E+04,      /* I = 16 */
(PID.TID 0000.0001)                 3.722205840764935E+04,      /* I = 17 */
(PID.TID 0000.0001)                 3.720118080314008E+04,      /* I = 18 */
(PID.TID 0000.0001)                 3.717433724834998E+04,      /* I = 19 */
(PID.TID 0000.0001)                 3.714152712500728E+04,      /* I = 20 */
(PID.TID 0000.0001)                 3.710274973294063E+04,      /* I = 21 */
(PID.TID 0000.0001)                 3.705800432398131E+04,      /* I = 22 */
(PID.TID 0000.0001)                 3.700729014250917E+04,      /* I = 23 */
(PID.TID 0000.0001)                 3.695060647275716E+04,      /* I = 24 */
(PID.TID 0000.0001)                 3.688795269313094E+04,      /* I = 25 */
(PID.TID 0000.0001)                 3.681932833792821E+04,      /* I = 26 */
(PID.TID 0000.0001)                 3.674473316658630E+04,      /* I = 27 */
(PID.TID 0000.0001)                 3.666416724104654E+04,      /* I = 28 */
(PID.TID 0000.0001)                 3.657763101146962E+04,      /* I = 29 */
(PID.TID 0000.0001)                 3.648512541079492E+04       /* I = 30 */
(PID.TID 0000.0001)     ;
(PID.TID 0000.0001) dyU =  /* dyU(1,:,1,:) ( units: m ) */
(PID.TID 0000.0001)                 3.674473316658630E+04,      /* J =  1 */
(PID.TID 0000.0001)                 3.719361547538896E+04,      /* J =  2 */
(PID.TID 0000.0001)                 3.764089459751266E+04,      /* J =  3 */
(PID.TID 0000.0001)                 3.808646730382765E+04,      /* J =  4 */
(PID.TID 0000.0001)                 3.853023123895088E+04,      /* J =  5 */
(PID.TID 0000.0001)                 3.897208503739593E+04,      /* J =  6 */
(PID.TID 0000.0001)                 3.941192840112046E+04,      /* J =  7 */
(PID.TID 0000.0001)                 3.984966213263487E+04,      /* J =  8 */
(PID.TID 0000.0001)                 4.028518814419441E+04,      /* J =  9 */
(PID.TID 0000.0001)                 4.071840943468107E+04,      /* J = 10 */
(PID.TID 0000.0001)                 4.114923005120406E+04,      /* J = 11 */
(PID.TID 0000.0001)                 4.157755503103340E+04,      /* J = 12 */
(PID.TID 0000.0001)                 4.200329033666767E+04,      /* J = 13 */
(PID.TID 0000.0001)                 4.242634277960793E+04,      /* J = 14 */
(PID.TID 0000.0001)                 4.284661994092684E+04,      /* J = 15 */
(PID.TID 0000.0001)                 4.326403010205203E+04,      /* J = 16 */
(PID.TID 0000.0001)                 4.367848215462093E+04,      /* J = 17 */
(PID.TID 0000.0001)                 4.408988554208750E+04,      /* J = 18 */
(PID.TID 0000.0001)                 4.449815018464295E+04,      /* J = 19 */
(PID.TID 0000.0001)                 4.490318642518511E+04,      /* J = 20 */
(PID.TID 0000.0001)                 4.530490497491705E+04,      /* J = 21 */
(PID.TID 0000.0001)                 4.570321687598708E+04,      /* J = 22 */
(PID.TID 0000.0001)                 4.609803347024994E+04,      /* J = 23 */
(PID.TID 0000.0001)                 4.648926637992392E+04,      /* J = 24 */
(PID.TID 0000.0001)                 4.687682751321772E+04,      /* J = 25 */
(PID.TID 0000.0001)                 4.726062909013533E+04,      /* J = 26 */
(PID.TID 0000.0001)                 4.764058372401170E+04,      /* J = 27 */
(PID.TID 0000.0001)                 4.801660464021451E+04,      /* J = 28 */
(PID.TID 0000.0001)                 4.838860633247659E+04,      /* J = 29 */
(PID.TID 0000.0001)                 4.875650803021456E+04       /* J = 30 */
(PID.TID 0000.0001)     ;
(PID.TID 0000.0001) rA  =  /* rA (:,1,:,1) ( units: m^2 ) */
(PID.TID 0000.0001)                 7.665113621396177E+08,      /* I =  1 */
(PID.TID 0000.0001)                 7.677029697239892E+08,      /* I =  2 */
(PID.TID 0000.0001)                 7.687913877455838E+08,      /* I =  3 */
(PID.TID 0000.0001)                 7.697775979751738E+08,      /* I =  4 */
(PID.TID 0000.0001)                 7.706625466485583E+08,      /* I =  5 */
(PID.TID 0000.0001)                 7.714470546020026E+08,      /* I =  6 */
(PID.TID 0000.0001)                 7.721318586456149E+08,      /* I =  7 */
(PID.TID 0000.0001)                 7.727176271684608E+08,      /* I =  8 */
(PID.TID 0000.0001)                 7.732049082776864E+08,      /* I =  9 */
(PID.TID 0000.0001)                 7.735941717305043E+08,      /* I = 10 */
(PID.TID 0000.0001)                 7.738858051500469E+08,      /* I = 11 */
(PID.TID 0000.0001)                 7.740801100790358E+08,      /* I = 12 */
(PID.TID 0000.0001)                 7.741766386182301E+08,      /* I = 13 */
(PID.TID 0000.0001)                 7.741766369784317E+08,      /* I = 14 */
(PID.TID 0000.0001)                 7.740801094843833E+08,      /* I = 15 */
(PID.TID 0000.0001)                 7.738858062852919E+08,      /* I = 16 */
(PID.TID 0000.0001)                 7.735941726495122E+08,      /* I = 17 */
(PID.TID 0000.0001)                 7.732049061873938E+08,      /* I = 18 */
(PID.TID 0000.0001)                 7.727176277450933E+08,      /* I = 19 */
(PID.TID 0000.0001)                 7.721318658895597E+08,      /* I = 20 */
(PID.TID 0000.0001)                 7.714470531424019E+08,      /* I = 21 */
(PID.TID 0000.0001)                 7.706625470810328E+08,      /* I = 22 */
(PID.TID 0000.0001)                 7.697776024260553E+08,      /* I = 23 */
(PID.TID 0000.0001)                 7.687913844659867E+08,      /* I = 24 */
(PID.TID 0000.0001)                 7.677029712196296E+08,      /* I = 25 */
(PID.TID 0000.0001)                 7.665113646083255E+08,      /* I = 26 */
(PID.TID 0000.0001)                 7.652154604170089E+08,      /* I = 27 */
(PID.TID 0000.0001)                 7.638140926048064E+08,      /* I = 28 */
(PID.TID 0000.0001)                 7.623059927966076E+08,      /* I = 29 */
(PID.TID 0000.0001)                 7.606898330980235E+08       /* I = 30 */
(PID.TID 0000.0001)     ;
(PID.TID 0000.0001) rA  =  /* rA (1,:,1,:) ( units: m^2 ) */
(PID.TID 0000.0001)                 7.665113621396177E+08,      /* J =  1 */
(PID.TID 0000.0001)                 7.900134359449342E+08,      /* J =  2 */
(PID.TID 0000.0001)                 8.143679155417176E+08,      /* J =  3 */
(PID.TID 0000.0001)                 8.395900636155584E+08,      /* J =  4 */
(PID.TID 0000.0001)                 8.656947784023314E+08,      /* J =  5 */
(PID.TID 0000.0001)                 8.926966010402582E+08,      /* J =  6 */
(PID.TID 0000.0001)                 9.206097737377057E+08,      /* J =  7 */
(PID.TID 0000.0001)                 9.494482582794807E+08,      /* J =  8 */
(PID.TID 0000.0001)                 9.792257431806778E+08,      /* J =  9 */
(PID.TID 0000.0001)                 1.009955679131553E+09,      /* J = 10 */
(PID.TID 0000.0001)                 1.041651296044221E+09,      /* J = 11 */
(PID.TID 0000.0001)                 1.074325614369065E+09,      /* J = 12 */
(PID.TID 0000.0001)                 1.107991467925779E+09,      /* J = 13 */
(PID.TID 0000.0001)                 1.142661498173082E+09,      /* J = 14 */
(PID.TID 0000.0001)                 1.178348167164929E+09,      /* J = 15 */
(PID.TID 0000.0001)                 1.215063762235644E+09,      /* J = 16 */
(PID.TID 0000.0001)                 1.252820414073754E+09,      /* J = 17 */
(PID.TID 0000.0001)                 1.291630043617734E+09,      /* J = 18 */
(PID.TID 0000.0001)                 1.331504416619858E+09,      /* J = 19 */
(PID.TID 0000.0001)                 1.372455096362339E+09,      /* J = 20 */
(PID.TID 0000.0001)                 1.414493440828222E+09,      /* J = 21 */
(PID.TID 0000.0001)                 1.457630613639386E+09,      /* J = 22 */
(PID.TID 0000.0001)                 1.501877517761831E+09,      /* J = 23 */
(PID.TID 0000.0001)                 1.547244834049951E+09,      /* J = 24 */
(PID.TID 0000.0001)                 1.593742963439136E+09,      /* J = 25 */
(PID.TID 0000.0001)                 1.641382020566774E+09,      /* J = 26 */
(PID.TID 0000.0001)                 1.690171807481416E+09,      /* J = 27 */
(PID.TID 0000.0001)                 1.740121820832662E+09,      /* J = 28 */
(PID.TID 0000.0001)                 1.791241246411172E+09,      /* J = 29 */
(PID.TID 0000.0001)                 1.843539059771026E+09       /* J = 30 */
(PID.TID 0000.0001)     ;
(PID.TID 0000.0001) rAw =  /* rAw(:,1,:,1) ( units: m^2 ) */
(PID.TID 0000.0001)                 7.658765213139513E+08,      /* I =  1 */
(PID.TID 0000.0001)                 7.671201328724998E+08,      /* I =  2 */
(PID.TID 0000.0001)                 7.682600121490355E+08,      /* I =  3 */
(PID.TID 0000.0001)                 7.692972101823016E+08,      /* I =  4 */
(PID.TID 0000.0001)                 7.702326756407654E+08,      /* I =  5 */
(PID.TID 0000.0001)                 7.710673044850856E+08,      /* I =  6 */
(PID.TID 0000.0001)                 7.718018764844863E+08,      /* I =  7 */
(PID.TID 0000.0001)                 7.724370884091616E+08,      /* I =  8 */
(PID.TID 0000.0001)                 7.729735468223690E+08,      /* I =  9 */
(PID.TID 0000.0001)                 7.734117650170708E+08,      /* I = 10 */
(PID.TID 0000.0001)                 7.737521718456172E+08,      /* I = 11 */
(PID.TID 0000.0001)                 7.739951054308500E+08,      /* I = 12 */
(PID.TID 0000.0001)                 7.741408739107244E+08,      /* I = 13 */
(PID.TID 0000.0001)                 7.741880730050739E+08,      /* I = 14 */
(PID.TID 0000.0001)                 7.741408710636016E+08,      /* I = 15 */
(PID.TID 0000.0001)                 7.739951071427275E+08,      /* I = 16 */
(PID.TID 0000.0001)                 7.737521718095777E+08,      /* I = 17 */
(PID.TID 0000.0001)                 7.734117675938969E+08,      /* I = 18 */
(PID.TID 0000.0001)                 7.729735457051437E+08,      /* I = 19 */
(PID.TID 0000.0001)                 7.724370889497546E+08,      /* I = 20 */
(PID.TID 0000.0001)                 7.718018793856685E+08,      /* I = 21 */
(PID.TID 0000.0001)                 7.710673053320146E+08,      /* I = 22 */
(PID.TID 0000.0001)                 7.702326816053071E+08,      /* I = 23 */
(PID.TID 0000.0001)                 7.692972065242898E+08,      /* I = 24 */
(PID.TID 0000.0001)                 7.682600115363635E+08,      /* I = 25 */
(PID.TID 0000.0001)                 7.671201363863536E+08,      /* I = 26 */
(PID.TID 0000.0001)                 7.658765213499908E+08,      /* I = 27 */
(PID.TID 0000.0001)                 7.645280345158333E+08,      /* I = 28 */
(PID.TID 0000.0001)                 7.630734673343852E+08,      /* I = 29 */
(PID.TID 0000.0001)                 7.615115062009304E+08       /* I = 30 */
(PID.TID 0000.0001)     ;
(PID.TID 0000.0001) rAw =  /* rAw(1,:,1,:) ( units: m^2 ) */
(PID.TID 0000.0001)                 7.658765213139513E+08,      /* J =  1 */
(PID.TID 0000.0001)                 7.893768970448780E+08,      /* J =  2 */
(PID.TID 0000.0001)                 8.137283914516071E+08,      /* J =  3 */
(PID.TID 0000.0001)                 8.389460603348250E+08,      /* J =  4 */
(PID.TID 0000.0001)                 8.650445848102766E+08,      /* J =  5 */
(PID.TID 0000.0001)                 8.920382782103341E+08,      /* J =  6 */
(PID.TID 0000.0001)                 9.199411445401106E+08,      /* J =  7 */
(PID.TID 0000.0001)                 9.487668893433769E+08,      /* J =  8 */
(PID.TID 0000.0001)                 9.785289545527842E+08,      /* J =  9 */
(PID.TID 0000.0001)                 1.009240515336406E+09,      /* J = 10 */
(PID.TID 0000.0001)                 1.040914522930714E+09,      /* J = 11 */
(PID.TID 0000.0001)                 1.073563715488477E+09,      /* J = 12 */
(PID.TID 0000.0001)                 1.107200612276400E+09,      /* J = 13 */
(PID.TID 0000.0001)                 1.141837554111466E+09,      /* J = 14 */
(PID.TID 0000.0001)                 1.177486672294872E+09,      /* J = 15 */
(PID.TID 0000.0001)                 1.214159933192917E+09,      /* J = 16 */
(PID.TID 0000.0001)                 1.251869095602249E+09,      /* J = 17 */
(PID.TID 0000.0001)                 1.290625742284441E+09,      /* J = 18 */
(PID.TID 0000.0001)                 1.330441258846839E+09,      /* J = 19 */
(PID.TID 0000.0001)                 1.371326820624166E+09,      /* J = 20 */
(PID.TID 0000.0001)                 1.413293399742275E+09,      /* J = 21 */
(PID.TID 0000.0001)                 1.456351737475827E+09,      /* J = 22 */
(PID.TID 0000.0001)                 1.500512320083793E+09,      /* J = 23 */
(PID.TID 0000.0001)                 1.545785394792978E+09,      /* J = 24 */
(PID.TID 0000.0001)                 1.592180902277974E+09,      /* J = 25 */
(PID.TID 0000.0001)                 1.639708504465653E+09,      /* J = 26 */
(PID.TID 0000.0001)                 1.688377519501836E+09,      /* J = 27 */
(PID.TID 0000.0001)                 1.738196956421325E+09,      /* J = 28 */
(PID.TID 0000.0001)                 1.789175499722981E+09,      /* J = 29 */
(PID.TID 0000.0001)                 1.841321602441802E+09       /* J = 30 */
(PID.TID 0000.0001)     ;
(PID.TID 0000.0001) rAs =  /* rAs(:,1,:,1) ( units: m^2 ) */
(PID.TID 0000.0001)                 7.550751050606852E+08,      /* I =  1 */
(PID.TID 0000.0001)                 7.562658447772087E+08,      /* I =  2 */
(PID.TID 0000.0001)                 7.573533970032284E+08,      /* I =  3 */
(PID.TID 0000.0001)                 7.583387692957978E+08,      /* I =  4 */
(PID.TID 0000.0001)                 7.592229121974397E+08,      /* I =  5 */
(PID.TID 0000.0001)                 7.600066705467438E+08,      /* I =  6 */
(PID.TID 0000.0001)                 7.606907923080522E+08,      /* I =  7 */
(PID.TID 0000.0001)                 7.612759532224941E+08,      /* I =  8 */
(PID.TID 0000.0001)                 7.617627129118443E+08,      /* I =  9 */
(PID.TID 0000.0001)                 7.621515550445726E+08,      /* I = 10 */
(PID.TID 0000.0001)                 7.624428588466020E+08,      /* I = 11 */
(PID.TID 0000.0001)                 7.626369483673384E+08,      /* I = 12 */
(PID.TID 0000.0001)                 7.627333738515058E+08,      /* I = 13 */
(PID.TID 0000.0001)                 7.627333728604188E+08,      /* I = 14 */
(PID.TID 0000.0001)                 7.626369508901051E+08,      /* I = 15 */
(PID.TID 0000.0001)                 7.624428655319341E+08,      /* I = 16 */
(PID.TID 0000.0001)                 7.621515526659639E+08,      /* I = 17 */
(PID.TID 0000.0001)                 7.617627197953936E+08,      /* I = 18 */
(PID.TID 0000.0001)                 7.612759510961621E+08,      /* I = 19 */
(PID.TID 0000.0001)                 7.606907969030919E+08,      /* I = 20 */
(PID.TID 0000.0001)                 7.600066694295187E+08,      /* I = 21 */
(PID.TID 0000.0001)                 7.592229103594238E+08,      /* I = 22 */
(PID.TID 0000.0001)                 7.583387684488690E+08,      /* I = 23 */
(PID.TID 0000.0001)                 7.573533915792797E+08,      /* I = 24 */
(PID.TID 0000.0001)                 7.562658465071062E+08,      /* I = 25 */
(PID.TID 0000.0001)                 7.550751079979067E+08,      /* I = 26 */
(PID.TID 0000.0001)                 7.537800585200102E+08,      /* I = 27 */
(PID.TID 0000.0001)                 7.523795064624999E+08,      /* I = 28 */
(PID.TID 0000.0001)                 7.508721675027735E+08,      /* I = 29 */
(PID.TID 0000.0001)                 7.492566800675046E+08       /* I = 30 */
(PID.TID 0000.0001)     ;
(PID.TID 0000.0001) rAs =  /* rAs(1,:,1,:) ( units: m^2 ) */
(PID.TID 0000.0001)                 7.550751050606852E+08,      /* J =  1 */
(PID.TID 0000.0001)                 7.781568160584769E+08,      /* J =  2 */
(PID.TID 0000.0001)                 8.020831616625657E+08,      /* J =  3 */
(PID.TID 0000.0001)                 8.268695937660589E+08,      /* J =  4 */
(PID.TID 0000.0001)                 8.525311818286231E+08,      /* J =  5 */
(PID.TID 0000.0001)                 8.790826547724357E+08,      /* J =  6 */
(PID.TID 0000.0001)                 9.065383887828039E+08,      /* J =  7 */
(PID.TID 0000.0001)                 9.349124897125442E+08,      /* J =  8 */
(PID.TID 0000.0001)                 9.642187819277472E+08,      /* J =  9 */
(PID.TID 0000.0001)                 9.944708240750725E+08,      /* J = 10 */
(PID.TID 0000.0001)                 1.025681954725808E+09,      /* J = 11 */
(PID.TID 0000.0001)                 1.057865313008499E+09,      /* J = 12 */
(PID.TID 0000.0001)                 1.091033805921100E+09,      /* J = 13 */
(PID.TID 0000.0001)                 1.125200178247652E+09,      /* J = 14 */
(PID.TID 0000.0001)                 1.160376979600140E+09,      /* J = 15 */
(PID.TID 0000.0001)                 1.196576586510721E+09,      /* J = 16 */
(PID.TID 0000.0001)                 1.233811208089928E+09,      /* J = 17 */
(PID.TID 0000.0001)                 1.272092866313053E+09,      /* J = 18 */
(PID.TID 0000.0001)                 1.311433405822894E+09,      /* J = 19 */
(PID.TID 0000.0001)                 1.351844507714875E+09,      /* J = 20 */
(PID.TID 0000.0001)                 1.393337606051485E+09,      /* J = 21 */
(PID.TID 0000.0001)                 1.435923987908001E+09,      /* J = 22 */
(PID.TID 0000.0001)                 1.479614675036705E+09,      /* J = 23 */
(PID.TID 0000.0001)                 1.524420466465598E+09,      /* J = 24 */
(PID.TID 0000.0001)                 1.570351910729954E+09,      /* J = 25 */
(PID.TID 0000.0001)                 1.617419255741331E+09,      /* J = 26 */
(PID.TID 0000.0001)                 1.665632470339211E+09,      /* J = 27 */
(PID.TID 0000.0001)                 1.715001205152071E+09,      /* J = 28 */
(PID.TID 0000.0001)                 1.765534790867491E+09,      /* J = 29 */
(PID.TID 0000.0001)                 1.817242347954489E+09       /* J = 30 */
(PID.TID 0000.0001)     ;
(PID.TID 0000.0001) globalArea = /* Integrated horizontal Area (m^2) */
(PID.TID 0000.0001)                 3.580138611494433E+14
(PID.TID 0000.0001)     ;
(PID.TID 0000.0001) hasWetCSCorners = /* Domain contains CS corners (True/False) */
(PID.TID 0000.0001)                   F
(PID.TID 0000.0001)     ;
(PID.TID 0000.0001) // =======================================================
(PID.TID 0000.0001) // End of Model config. summary
(PID.TID 0000.0001) // =======================================================
(PID.TID 0000.0001) 
(PID.TID 0000.0001) == Packages configuration : Check & print summary ==
(PID.TID 0000.0001) 
(PID.TID 0000.0001) KPP_CHECK: #define ALLOW_KPP
(PID.TID 0000.0001) GAD_CHECK: #define ALLOW_GENERIC_ADVDIFF
(PID.TID 0000.0001) // =======================================================
(PID.TID 0000.0001) // Check Model config. (CONFIG_CHECK):
(PID.TID 0000.0001) // CONFIG_CHECK : Normal End
(PID.TID 0000.0001) // =======================================================
(PID.TID 0000.0001) 
(PID.TID 0000.0001)  MDS_READ_META: opening file: pickup.0000000001.meta
(PID.TID 0000.0001)  nRecords = 403 ; filePrec =  64 ; fileIter =     26280
(PID.TID 0000.0001)     nDims =   2 , dims:
(PID.TID 0000.0001)    1:  90   1  90
(PID.TID 0000.0001)    2:1170   11170
(PID.TID 0000.0001)     nFlds =  11 , nFl3D =   8 , fields:
(PID.TID 0000.0001)  >Uvel    < >Vvel    < >Theta   < >Salt    < >GuNm1   < >GuNm2   < >GvNm1   < >GvNm2   < >EtaN    < >dEtaHdt < >EtaH    <
(PID.TID 0000.0001) missingVal=  1.00000000000000E+00 ; nTimRec =   1 , timeList:
(PID.TID 0000.0001)   9.460800000000E+07
(PID.TID 0000.0001) READ_MFLDS_3D_RL: read field: "Uvel    ", #   1 in fldList, rec=   1
(PID.TID 0000.0001)  MDS_READ_FIELD: opening global file: pickup.0000000001.data
(PID.TID 0000.0001) READ_MFLDS_3D_RL: read field: "Vvel    ", #   2 in fldList, rec=   2
(PID.TID 0000.0001)  MDS_READ_FIELD: opening global file: pickup.0000000001.data
(PID.TID 0000.0001) READ_MFLDS_3D_RL: read field: "Theta   ", #   3 in fldList, rec=   3
(PID.TID 0000.0001)  MDS_READ_FIELD: opening global file: pickup.0000000001.data
(PID.TID 0000.0001) READ_MFLDS_3D_RL: read field: "Salt    ", #   4 in fldList, rec=   4
(PID.TID 0000.0001)  MDS_READ_FIELD: opening global file: pickup.0000000001.data
(PID.TID 0000.0001) READ_MFLDS_3D_RL: read field: "GuNm1   ", #   5 in fldList, rec=   5
(PID.TID 0000.0001)  MDS_READ_FIELD: opening global file: pickup.0000000001.data
(PID.TID 0000.0001) READ_MFLDS_3D_RL: read field: "GvNm1   ", #   7 in fldList, rec=   7
(PID.TID 0000.0001)  MDS_READ_FIELD: opening global file: pickup.0000000001.data
(PID.TID 0000.0001) READ_MFLDS_3D_RL: read field: "EtaN    ", #   9 in fldList, rec= 401
(PID.TID 0000.0001)  MDS_READ_FIELD: opening global file: pickup.0000000001.data
(PID.TID 0000.0001) READ_MFLDS_3D_RL: read field: "dEtaHdt ", #  10 in fldList, rec= 402
(PID.TID 0000.0001)  MDS_READ_FIELD: opening global file: pickup.0000000001.data
(PID.TID 0000.0001) READ_MFLDS_CHECK: - normal end ; reset MFLDS file-name: pickup.0000000001
(PID.TID 0000.0001) // =======================================================
(PID.TID 0000.0001) // Model current state
(PID.TID 0000.0001) // =======================================================
(PID.TID 0000.0001) 
(PID.TID 0000.0001) SOLVE_FOR_PRESSURE: putPmEinXvector =    F
 cg2d: Sum(rhs),rhsMax =   4.28025842854026E+01  3.11536434780056E+00
 cg2d: Sum(rhs),rhsMax =   2.72886027924810E+01  4.83703660617670E+00
 cg2d: Sum(rhs),rhsMax =   2.64901128147985E+01  4.91245874480544E+00
 cg2d: Sum(rhs),rhsMax =   4.14391300568509E+01  3.10412866688045E+00
 cg2d: Sum(rhs),rhsMax =   3.32633324542564E+01  3.83429212625534E+00
 cg2d: Sum(rhs),rhsMax =   3.69593593924726E+01  3.42893744583803E+00
 cg2d: Sum(rhs),rhsMax =   3.54230846294008E+01  3.55950797082625E+00
(PID.TID 0000.0001)      cg2d_init_res =   2.89556131630224E+00
(PID.TID 0000.0001)      cg2d_iters(min,last) =      -1      26
(PID.TID 0000.0001)      cg2d_last_res =   6.62460643536136E-06
(PID.TID 0000.0001) // =======================================================
(PID.TID 0000.0001) // Begin MONITOR dynamic field statistics
(PID.TID 0000.0001) // =======================================================
(PID.TID 0000.0001) %MON time_tsnumber                =                     8
(PID.TID 0000.0001) %MON time_secondsf                =   7.2000000000000E+03
(PID.TID 0000.0001) %MON dynstat_eta_max              =   1.5242467662518E+00
(PID.TID 0000.0001) %MON dynstat_eta_min              =  -4.5718978845847E+00
(PID.TID 0000.0001) %MON dynstat_eta_mean             =  -1.4358923745656E-03
(PID.TID 0000.0001) %MON dynstat_eta_sd               =   7.4107400963533E-01
(PID.TID 0000.0001) %MON dynstat_eta_del2             =   2.7137359182928E-04
(PID.TID 0000.0001) %MON dynstat_uvel_max             =   1.1283346076008E+00
(PID.TID 0000.0001) %MON dynstat_uvel_min             =  -1.1762307271298E+00
(PID.TID 0000.0001) %MON dynstat_uvel_mean            =   2.1016581477082E-03
(PID.TID 0000.0001) %MON dynstat_uvel_sd              =   2.4061011945563E-02
(PID.TID 0000.0001) %MON dynstat_uvel_del2            =   2.7604435749460E-05
(PID.TID 0000.0001) %MON dynstat_vvel_max             =   8.4379493101519E-01
(PID.TID 0000.0001) %MON dynstat_vvel_min             =  -1.1051482357106E+00
(PID.TID 0000.0001) %MON dynstat_vvel_mean            =   1.1476042007700E-03
(PID.TID 0000.0001) %MON dynstat_vvel_sd              =   2.5208076027480E-02
(PID.TID 0000.0001) %MON dynstat_vvel_del2            =   2.6982620085370E-05
(PID.TID 0000.0001) %MON dynstat_wvel_max             =   1.4979197993867E-02
(PID.TID 0000.0001) %MON dynstat_wvel_min             =  -1.1160595166083E-02
(PID.TID 0000.0001) %MON dynstat_wvel_mean            =   5.6675890218098E-22
(PID.TID 0000.0001) %MON dynstat_wvel_sd              =   3.1011222190229E-04
(PID.TID 0000.0001) %MON dynstat_wvel_del2            =   6.4832589438663E-07
(PID.TID 0000.0001) %MON dynstat_theta_max            =   3.2661883998266E+01
(PID.TID 0000.0001) %MON dynstat_theta_min            =  -2.7360230546029E+00
(PID.TID 0000.0001) %MON dynstat_theta_mean           =   3.5901770637245E+00
(PID.TID 0000.0001) %MON dynstat_theta_sd             =   4.4235800468589E+00
(PID.TID 0000.0001) %MON dynstat_theta_del2           =   2.8656586412189E-04
(PID.TID 0000.0001) %MON dynstat_salt_max             =   4.0711525065411E+01
(PID.TID 0000.0001) %MON dynstat_salt_min             =   1.8852141463502E+01
(PID.TID 0000.0001) %MON dynstat_salt_mean            =   3.4725636252506E+01
(PID.TID 0000.0001) %MON dynstat_salt_sd              =   3.6841900423368E-01
(PID.TID 0000.0001) %MON dynstat_salt_del2            =   1.2379802037599E-04
(PID.TID 0000.0001) %MON dynstat_sst_max              =   3.2655097126840E+01
(PID.TID 0000.0001) %MON dynstat_sst_min              =  -2.7360230546029E+00
(PID.TID 0000.0001) %MON dynstat_sst_mean             =   1.8269313686543E+01
(PID.TID 0000.0001) %MON dynstat_sst_sd               =   1.0218347432844E+01
(PID.TID 0000.0001) %MON dynstat_sst_del2             =   2.6429494011702E-03
(PID.TID 0000.0001) %MON dynstat_sss_max              =   3.9661584284756E+01
(PID.TID 0000.0001) %MON dynstat_sss_min              =   1.8908878266440E+01
(PID.TID 0000.0001) %MON dynstat_sss_mean             =   3.4816974923152E+01
(PID.TID 0000.0001) %MON dynstat_sss_sd               =   1.0087391499308E+00
(PID.TID 0000.0001) %MON dynstat_sss_del2             =   1.9867603108262E-03
(PID.TID 0000.0001) %MON forcing_qnet_max             =   1.4861822860847E+03
(PID.TID 0000.0001) %MON forcing_qnet_min             =  -8.3919421803830E+03
(PID.TID 0000.0001) %MON forcing_qnet_mean            =  -6.5965791843882E+01
(PID.TID 0000.0001) %MON forcing_qnet_sd              =   3.9205873473708E+02
(PID.TID 0000.0001) %MON forcing_qnet_del2            =   1.7269691200267E+00
(PID.TID 0000.0001) %MON forcing_qsw_max              =   0.0000000000000E+00
(PID.TID 0000.0001) %MON forcing_qsw_min              =  -9.5637787363791E+01
(PID.TID 0000.0001) %MON forcing_qsw_mean             =  -1.9352001903730E+01
(PID.TID 0000.0001) %MON forcing_qsw_sd               =   2.6585756675185E+01
(PID.TID 0000.0001) %MON forcing_qsw_del2             =   4.4703899124288E-02
(PID.TID 0000.0001) %MON forcing_empmr_max            =   3.8347712252289E-03
(PID.TID 0000.0001) %MON forcing_empmr_min            =  -8.3704657852650E-02
(PID.TID 0000.0001) %MON forcing_empmr_mean           =  -7.7226717177249E-06
(PID.TID 0000.0001) %MON forcing_empmr_sd             =   3.7897052560498E-04
(PID.TID 0000.0001) %MON forcing_empmr_del2           =   2.6520413330189E-06
(PID.TID 0000.0001) %MON forcing_fu_max               =   1.3830483555794E+00
(PID.TID 0000.0001) %MON forcing_fu_min               =  -1.4561330080032E+00
(PID.TID 0000.0001) %MON forcing_fu_mean              =   1.2666499365245E-02
(PID.TID 0000.0001) %MON forcing_fu_sd                =   1.2058045881093E-01
(PID.TID 0000.0001) %MON forcing_fu_del2              =   1.8020272613454E-04
(PID.TID 0000.0001) %MON forcing_fv_max               =   8.6435100436211E-01
(PID.TID 0000.0001) %MON forcing_fv_min               =  -8.4876942410243E-01
(PID.TID 0000.0001) %MON forcing_fv_mean              =  -5.4133999196652E-03
(PID.TID 0000.0001) %MON forcing_fv_sd                =   1.1676502232362E-01
(PID.TID 0000.0001) %MON forcing_fv_del2              =   1.4457929927622E-04
(PID.TID 0000.0001) %MON trAdv_CFL_u_max              =   2.3872140940150E-02
(PID.TID 0000.0001) %MON trAdv_CFL_v_max              =   2.4081173068300E-02
(PID.TID 0000.0001) %MON trAdv_CFL_w_max              =   1.1358865903347E-01
(PID.TID 0000.0001) %MON advcfl_uvel_max              =   2.3733738083172E-02
(PID.TID 0000.0001) %MON advcfl_vvel_max              =   2.4218682386259E-02
(PID.TID 0000.0001) %MON advcfl_wvel_max              =   2.2717731806694E-01
(PID.TID 0000.0001) %MON advcfl_W_hf_max              =   1.1052047710082E-01
(PID.TID 0000.0001) %MON pe_b_mean                    =   7.2240424459139E-04
(PID.TID 0000.0001) %MON ke_max                       =   7.4364312813516E-01
(PID.TID 0000.0001) %MON ke_mean                      =   5.8833352816984E-04
(PID.TID 0000.0001) %MON ke_vol                       =   1.3350064351420E+18
(PID.TID 0000.0001) %MON vort_r_min                   =  -5.2869195229200E-05
(PID.TID 0000.0001) %MON vort_r_max                   =   3.6820361636132E-05
(PID.TID 0000.0001) %MON vort_a_mean                  =  -1.9725213241026E-05
(PID.TID 0000.0001) %MON vort_a_sd                    =   7.4538291640787E-05
(PID.TID 0000.0001) %MON vort_p_mean                  =  -2.1669263470803E-05
(PID.TID 0000.0001) %MON vort_p_sd                    =   9.3604948457301E-05
(PID.TID 0000.0001) %MON surfExpan_theta_mean         =   8.1576353298135E-06
(PID.TID 0000.0001) %MON surfExpan_salt_mean          =  -1.3390585266451E-07
(PID.TID 0000.0001) // =======================================================
(PID.TID 0000.0001) // End MONITOR dynamic field statistics
(PID.TID 0000.0001) // =======================================================
 cg2d: Sum(rhs),rhsMax =   3.69789649720881E+01  3.39589511615300E+00
 cg2d: Sum(rhs),rhsMax =   3.75772880326451E+01  3.33095377230094E+00
 cg2d: Sum(rhs),rhsMax =   3.53537059896846E+01  3.53122638724661E+00
 cg2d: Sum(rhs),rhsMax =   3.64877325356233E+01  3.41391935811870E+00
 cg2d: Sum(rhs),rhsMax =   3.57642247413000E+01  3.47627073027965E+00
 cg2d: Sum(rhs),rhsMax =   3.52743031635064E+01  3.51893540239241E+00
 cg2d: Sum(rhs),rhsMax =   3.49512922775330E+01  3.54666134224745E+00
 cg2d: Sum(rhs),rhsMax =   3.46669920115294E+01  3.57106313037844E+00
(PID.TID 0000.0001)      cg2d_init_res =   1.62454917831817E+00
(PID.TID 0000.0001)      cg2d_iters(min,last) =      -1      25
(PID.TID 0000.0001)      cg2d_last_res =   7.24762580619708E-06
(PID.TID 0000.0001) // =======================================================
(PID.TID 0000.0001) // Begin MONITOR dynamic field statistics
(PID.TID 0000.0001) // =======================================================
(PID.TID 0000.0001) %MON time_tsnumber                =                    16
(PID.TID 0000.0001) %MON time_secondsf                =   1.4400000000000E+04
(PID.TID 0000.0001) %MON dynstat_eta_max              =   1.3323648681987E+00
(PID.TID 0000.0001) %MON dynstat_eta_min              =  -4.1415290333028E+00
(PID.TID 0000.0001) %MON dynstat_eta_mean             =  -1.4098055985969E-03
(PID.TID 0000.0001) %MON dynstat_eta_sd               =   7.3501311087933E-01
(PID.TID 0000.0001) %MON dynstat_eta_del2             =   2.4834970315659E-04
(PID.TID 0000.0001) %MON dynstat_uvel_max             =   9.6060807478917E-01
(PID.TID 0000.0001) %MON dynstat_uvel_min             =  -1.3693573662715E+00
(PID.TID 0000.0001) %MON dynstat_uvel_mean            =   2.2523487070564E-03
(PID.TID 0000.0001) %MON dynstat_uvel_sd              =   2.9949229333470E-02
(PID.TID 0000.0001) %MON dynstat_uvel_del2            =   4.6301747316423E-05
(PID.TID 0000.0001) %MON dynstat_vvel_max             =   1.1451329879825E+00
(PID.TID 0000.0001) %MON dynstat_vvel_min             =  -1.3297666077958E+00
(PID.TID 0000.0001) %MON dynstat_vvel_mean            =   8.1211117684608E-04
(PID.TID 0000.0001) %MON dynstat_vvel_sd              =   2.9987804964537E-02
(PID.TID 0000.0001) %MON dynstat_vvel_del2            =   4.3103367260979E-05
(PID.TID 0000.0001) %MON dynstat_wvel_max             =   2.7081029872523E-02
(PID.TID 0000.0001) %MON dynstat_wvel_min             =  -2.2330343831248E-02
(PID.TID 0000.0001) %MON dynstat_wvel_mean            =  -5.0892636114210E-22
(PID.TID 0000.0001) %MON dynstat_wvel_sd              =   6.1720981155101E-04
(PID.TID 0000.0001) %MON dynstat_wvel_del2            =   1.2896387730314E-06
(PID.TID 0000.0001) %MON dynstat_theta_max            =   3.2661819506286E+01
(PID.TID 0000.0001) %MON dynstat_theta_min            =  -2.7285783086874E+00
(PID.TID 0000.0001) %MON dynstat_theta_mean           =   3.5901922908031E+00
(PID.TID 0000.0001) %MON dynstat_theta_sd             =   4.4235577996296E+00
(PID.TID 0000.0001) %MON dynstat_theta_del2           =   2.8265397658762E-04
(PID.TID 0000.0001) %MON dynstat_salt_max             =   4.0711518065548E+01
(PID.TID 0000.0001) %MON dynstat_salt_min             =   1.8857229582112E+01
(PID.TID 0000.0001) %MON dynstat_salt_mean            =   3.4725575988932E+01
(PID.TID 0000.0001) %MON dynstat_salt_sd              =   3.6822069925108E-01
(PID.TID 0000.0001) %MON dynstat_salt_del2            =   1.1945251278235E-04
(PID.TID 0000.0001) %MON dynstat_sst_max              =   3.2649238044689E+01
(PID.TID 0000.0001) %MON dynstat_sst_min              =  -2.7285783086874E+00
(PID.TID 0000.0001) %MON dynstat_sst_mean             =   1.8272849130830E+01
(PID.TID 0000.0001) %MON dynstat_sst_sd               =   1.0218163853810E+01
(PID.TID 0000.0001) %MON dynstat_sst_del2             =   2.5712090090240E-03
(PID.TID 0000.0001) %MON dynstat_sss_max              =   3.9608542023626E+01
(PID.TID 0000.0001) %MON dynstat_sss_min              =   1.8900561891160E+01
(PID.TID 0000.0001) %MON dynstat_sss_mean             =   3.4796878617920E+01
(PID.TID 0000.0001) %MON dynstat_sss_sd               =   9.9208224448175E-01
(PID.TID 0000.0001) %MON dynstat_sss_del2             =   1.9535106684853E-03
(PID.TID 0000.0001) %MON forcing_qnet_max             =   2.3390213882743E+03
(PID.TID 0000.0001) %MON forcing_qnet_min             =  -5.5773993797241E+03
(PID.TID 0000.0001) %MON forcing_qnet_mean            =  -4.2172599166664E+01
(PID.TID 0000.0001) %MON forcing_qnet_sd              =   2.8945977204713E+02
(PID.TID 0000.0001) %MON forcing_qnet_del2            =   1.2132713101891E+00
(PID.TID 0000.0001) %MON forcing_qsw_max              =   0.0000000000000E+00
(PID.TID 0000.0001) %MON forcing_qsw_min              =  -9.5918268935578E+01
(PID.TID 0000.0001) %MON forcing_qsw_mean             =  -1.8346154853544E+01
(PID.TID 0000.0001) %MON forcing_qsw_sd               =   2.6320972893868E+01
(PID.TID 0000.0001) %MON forcing_qsw_del2             =   4.3920984100357E-02
(PID.TID 0000.0001) %MON forcing_empmr_max            =   4.6115452423692E-03
(PID.TID 0000.0001) %MON forcing_empmr_min            =  -6.1953227967024E-02
(PID.TID 0000.0001) %MON forcing_empmr_mean           =  -2.1427259957198E-06
(PID.TID 0000.0001) %MON forcing_empmr_sd             =   3.0872594236392E-04
(PID.TID 0000.0001) %MON forcing_empmr_del2           =   2.2553678697907E-06
(PID.TID 0000.0001) %MON forcing_fu_max               =   1.3119608759880E+00
(PID.TID 0000.0001) %MON forcing_fu_min               =  -1.2895520329475E+00
(PID.TID 0000.0001) %MON forcing_fu_mean              =   1.2030138131173E-02
(PID.TID 0000.0001) %MON forcing_fu_sd                =   1.1650103143741E-01
(PID.TID 0000.0001) %MON forcing_fu_del2              =   1.7215623088957E-04
(PID.TID 0000.0001) %MON forcing_fv_max               =   7.7205070853234E-01
(PID.TID 0000.0001) %MON forcing_fv_min               =  -8.3864081460162E-01
(PID.TID 0000.0001) %MON forcing_fv_mean              =  -5.7928830590358E-03
(PID.TID 0000.0001) %MON forcing_fv_sd                =   1.1075511122657E-01
(PID.TID 0000.0001) %MON forcing_fv_del2              =   1.3748271069453E-04
(PID.TID 0000.0001) %MON trAdv_CFL_u_max              =   2.8993087505472E-02
(PID.TID 0000.0001) %MON trAdv_CFL_v_max              =   2.8975605975779E-02
(PID.TID 0000.0001) %MON trAdv_CFL_w_max              =   1.9713802876708E-01
(PID.TID 0000.0001) %MON advcfl_uvel_max              =   2.8824995077003E-02
(PID.TID 0000.0001) %MON advcfl_vvel_max              =   2.9141063688486E-02
(PID.TID 0000.0001) %MON advcfl_wvel_max              =   2.2293643679812E-01
(PID.TID 0000.0001) %MON advcfl_W_hf_max              =   2.1124292599708E-01
(PID.TID 0000.0001) %MON pe_b_mean                    =   7.1063609668962E-04
(PID.TID 0000.0001) %MON ke_max                       =   9.2800168082137E-01
(PID.TID 0000.0001) %MON ke_mean                      =   8.6888847655034E-04
(PID.TID 0000.0001) %MON ke_vol                       =   1.3350064351420E+18
(PID.TID 0000.0001) %MON vort_r_min                   =  -6.3909576357956E-05
(PID.TID 0000.0001) %MON vort_r_max                   =   5.7655524652238E-05
(PID.TID 0000.0001) %MON vort_a_mean                  =  -1.9725213241026E-05
(PID.TID 0000.0001) %MON vort_a_sd                    =   7.4538624926762E-05
(PID.TID 0000.0001) %MON vort_p_mean                  =  -2.1669263470803E-05
(PID.TID 0000.0001) %MON vort_p_sd                    =   9.3610073419362E-05
(PID.TID 0000.0001) %MON surfExpan_theta_mean         =   1.4266596205050E-06
(PID.TID 0000.0001) %MON surfExpan_salt_mean          =  -5.7119092241061E-07
(PID.TID 0000.0001) // =======================================================
(PID.TID 0000.0001) // End MONITOR dynamic field statistics
(PID.TID 0000.0001) // =======================================================
 cg2d: Sum(rhs),rhsMax =   3.47846053088151E+01  3.55411487685864E+00
 cg2d: Sum(rhs),rhsMax =   3.49582807121678E+01  3.53161231138082E+00
 cg2d: Sum(rhs),rhsMax =   3.52767129522870E+01  3.49456296309616E+00
 cg2d: Sum(rhs),rhsMax =   3.54533770486553E+01  3.47169862025918E+00
 cg2d: Sum(rhs),rhsMax =   3.54993898576467E+01  3.46131879742209E+00
 cg2d: Sum(rhs),rhsMax =   3.54202749974331E+01  3.46263271527472E+00
 cg2d: Sum(rhs),rhsMax =   3.42316920358853E+01  3.57599376738113E+00
 cg2d: Sum(rhs),rhsMax =   3.31575159242602E+01  3.68443517654872E+00
(PID.TID 0000.0001)      cg2d_init_res =   1.23139292936440E+00
(PID.TID 0000.0001)      cg2d_iters(min,last) =      -1      24
(PID.TID 0000.0001)      cg2d_last_res =   8.55276776755388E-06
(PID.TID 0000.0001) // =======================================================
(PID.TID 0000.0001) // Begin MONITOR dynamic field statistics
(PID.TID 0000.0001) // =======================================================
(PID.TID 0000.0001) %MON time_tsnumber                =                    24
(PID.TID 0000.0001) %MON time_secondsf                =   2.1600000000000E+04
(PID.TID 0000.0001) %MON dynstat_eta_max              =   1.1952058631149E+00
(PID.TID 0000.0001) %MON dynstat_eta_min              =  -4.8976627816338E+00
(PID.TID 0000.0001) %MON dynstat_eta_mean             =  -1.3912284478179E-03
(PID.TID 0000.0001) %MON dynstat_eta_sd               =   7.3053748641494E-01
(PID.TID 0000.0001) %MON dynstat_eta_del2             =   2.3051590597500E-04
(PID.TID 0000.0001) %MON dynstat_uvel_max             =   1.0463698925355E+00
(PID.TID 0000.0001) %MON dynstat_uvel_min             =  -1.5223690770748E+00
(PID.TID 0000.0001) %MON dynstat_uvel_mean            =   2.1173521958728E-03
(PID.TID 0000.0001) %MON dynstat_uvel_sd              =   3.4539570390472E-02
(PID.TID 0000.0001) %MON dynstat_uvel_del2            =   6.0826015757656E-05
(PID.TID 0000.0001) %MON dynstat_vvel_max             =   1.2124590812737E+00
(PID.TID 0000.0001) %MON dynstat_vvel_min             =  -1.3495290787559E+00
(PID.TID 0000.0001) %MON dynstat_vvel_mean            =   8.9822722074737E-04
(PID.TID 0000.0001) %MON dynstat_vvel_sd              =   3.5931573062138E-02
(PID.TID 0000.0001) %MON dynstat_vvel_del2            =   5.6970787370845E-05
(PID.TID 0000.0001) %MON dynstat_wvel_max             =   2.9490309758334E-02
(PID.TID 0000.0001) %MON dynstat_wvel_min             =  -2.6944857910578E-02
(PID.TID 0000.0001) %MON dynstat_wvel_mean            =  -3.9788788234746E-21
(PID.TID 0000.0001) %MON dynstat_wvel_sd              =   7.5495675957425E-04
(PID.TID 0000.0001) %MON dynstat_wvel_del2            =   1.5892035632573E-06
(PID.TID 0000.0001) %MON dynstat_theta_max            =   3.2662139495247E+01
(PID.TID 0000.0001) %MON dynstat_theta_min            =  -2.7202406894724E+00
(PID.TID 0000.0001) %MON dynstat_theta_mean           =   3.5902073888099E+00
(PID.TID 0000.0001) %MON dynstat_theta_sd             =   4.4235492297256E+00
(PID.TID 0000.0001) %MON dynstat_theta_del2           =   2.7653379629654E-04
(PID.TID 0000.0001) %MON dynstat_salt_max             =   4.0711511965871E+01
(PID.TID 0000.0001) %MON dynstat_salt_min             =   1.8858746583941E+01
(PID.TID 0000.0001) %MON dynstat_salt_mean            =   3.4725539180562E+01
(PID.TID 0000.0001) %MON dynstat_salt_sd              =   3.6808753367826E-01
(PID.TID 0000.0001) %MON dynstat_salt_del2            =   1.1586151170405E-04
(PID.TID 0000.0001) %MON dynstat_sst_max              =   3.2647444883943E+01
(PID.TID 0000.0001) %MON dynstat_sst_min              =  -2.7202406894724E+00
(PID.TID 0000.0001) %MON dynstat_sst_mean             =   1.8273322027298E+01
(PID.TID 0000.0001) %MON dynstat_sst_sd               =   1.0219918253182E+01
(PID.TID 0000.0001) %MON dynstat_sst_del2             =   2.4797545427581E-03
(PID.TID 0000.0001) %MON dynstat_sss_max              =   3.9558435867767E+01
(PID.TID 0000.0001) %MON dynstat_sss_min              =   1.8897704788592E+01
(PID.TID 0000.0001) %MON dynstat_sss_mean             =   3.4787604145349E+01
(PID.TID 0000.0001) %MON dynstat_sss_sd               =   9.8383038092006E-01
(PID.TID 0000.0001) %MON dynstat_sss_del2             =   1.9028703358072E-03
(PID.TID 0000.0001) %MON forcing_qnet_max             =   3.4251973947196E+03
(PID.TID 0000.0001) %MON forcing_qnet_min             =  -5.9025378920718E+03
(PID.TID 0000.0001) %MON forcing_qnet_mean            =  -1.2038214740303E+01
(PID.TID 0000.0001) %MON forcing_qnet_sd              =   2.4063563306772E+02
(PID.TID 0000.0001) %MON forcing_qnet_del2            =   1.2035797524304E+00
(PID.TID 0000.0001) %MON forcing_qsw_max              =   0.0000000000000E+00
(PID.TID 0000.0001) %MON forcing_qsw_min              =  -9.6465127783645E+01
(PID.TID 0000.0001) %MON forcing_qsw_mean             =  -1.5997949888392E+01
(PID.TID 0000.0001) %MON forcing_qsw_sd               =   2.3827547481306E+01
(PID.TID 0000.0001) %MON forcing_qsw_del2             =   4.0950191426638E-02
(PID.TID 0000.0001) %MON forcing_empmr_max            =   5.9722224250436E-03
(PID.TID 0000.0001) %MON forcing_empmr_min            =  -6.1052393168211E-02
(PID.TID 0000.0001) %MON forcing_empmr_mean           =  -3.2722462405464E-06
(PID.TID 0000.0001) %MON forcing_empmr_sd             =   2.8641245172656E-04
(PID.TID 0000.0001) %MON forcing_empmr_del2           =   2.2526451617308E-06
(PID.TID 0000.0001) %MON forcing_fu_max               =   1.1998131871223E+00
(PID.TID 0000.0001) %MON forcing_fu_min               =  -1.1184802651405E+00
(PID.TID 0000.0001) %MON forcing_fu_mean              =   1.2221639299997E-02
(PID.TID 0000.0001) %MON forcing_fu_sd                =   1.1276123856163E-01
(PID.TID 0000.0001) %MON forcing_fu_del2              =   1.6512218245560E-04
(PID.TID 0000.0001) %MON forcing_fv_max               =   7.6400697231293E-01
(PID.TID 0000.0001) %MON forcing_fv_min               =  -8.0271364264344E-01
(PID.TID 0000.0001) %MON forcing_fv_mean              =  -6.6528668446659E-03
(PID.TID 0000.0001) %MON forcing_fv_sd                =   1.0776761575228E-01
(PID.TID 0000.0001) %MON forcing_fv_del2              =   1.3213341009197E-04
(PID.TID 0000.0001) %MON trAdv_CFL_u_max              =   2.9540417602019E-02
(PID.TID 0000.0001) %MON trAdv_CFL_v_max              =   2.9406230093041E-02
(PID.TID 0000.0001) %MON trAdv_CFL_w_max              =   2.3911868901398E-01
(PID.TID 0000.0001) %MON advcfl_uvel_max              =   2.9457807143670E-02
(PID.TID 0000.0001) %MON advcfl_vvel_max              =   2.9574146773527E-02
(PID.TID 0000.0001) %MON advcfl_wvel_max              =   2.4584361969417E-01
(PID.TID 0000.0001) %MON advcfl_W_hf_max              =   2.5677000279169E-01
(PID.TID 0000.0001) %MON pe_b_mean                    =   7.0200803194787E-04
(PID.TID 0000.0001) %MON ke_max                       =   1.1740376363205E+00
(PID.TID 0000.0001) %MON ke_mean                      =   1.2003483459250E-03
(PID.TID 0000.0001) %MON ke_vol                       =   1.3350064351420E+18
(PID.TID 0000.0001) %MON vort_r_min                   =  -6.4770265076549E-05
(PID.TID 0000.0001) %MON vort_r_max                   =   6.2831999729537E-05
(PID.TID 0000.0001) %MON vort_a_mean                  =  -1.9725213241026E-05
(PID.TID 0000.0001) %MON vort_a_sd                    =   7.4539524687568E-05
(PID.TID 0000.0001) %MON vort_p_mean                  =  -2.1669263470803E-05
(PID.TID 0000.0001) %MON vort_p_sd                    =   9.3617521207599E-05
(PID.TID 0000.0001) %MON surfExpan_theta_mean         =  -2.6034039887470E-06
(PID.TID 0000.0001) %MON surfExpan_salt_mean          =  -9.5509786372585E-07
(PID.TID 0000.0001) // =======================================================
(PID.TID 0000.0001) // End MONITOR dynamic field statistics
(PID.TID 0000.0001) // =======================================================
 cg2d: Sum(rhs),rhsMax =   3.22446251877141E+01  3.78048836488666E+00
 cg2d: Sum(rhs),rhsMax =   3.14567410596351E+01  3.86577652104454E+00
 cg2d: Sum(rhs),rhsMax =   3.04023821287958E+01  3.99015758662466E+00
 cg2d: Sum(rhs),rhsMax =   2.93993219346642E+01  4.11639332273193E+00
 cg2d: Sum(rhs),rhsMax =   2.85181291417198E+01  4.23321238661019E+00
 cg2d: Sum(rhs),rhsMax =   2.77727201947234E+01  4.33560998613485E+00
 cg2d: Sum(rhs),rhsMax =   2.71478666615042E+01  4.42298739724330E+00
 cg2d: Sum(rhs),rhsMax =   2.66120550810911E+01  4.49865471686929E+00
(PID.TID 0000.0001)      cg2d_init_res =   9.02481388182625E-01
(PID.TID 0000.0001)      cg2d_iters(min,last) =      -1      24
(PID.TID 0000.0001)      cg2d_last_res =   7.05534565215780E-06
(PID.TID 0000.0001) // =======================================================
(PID.TID 0000.0001) // Begin MONITOR dynamic field statistics
(PID.TID 0000.0001) // =======================================================
(PID.TID 0000.0001) %MON time_tsnumber                =                    32
(PID.TID 0000.0001) %MON time_secondsf                =   2.8800000000000E+04
(PID.TID 0000.0001) %MON dynstat_eta_max              =   1.1777922052701E+00
(PID.TID 0000.0001) %MON dynstat_eta_min              =  -3.7426926062384E+00
(PID.TID 0000.0001) %MON dynstat_eta_mean             =  -1.3633476615482E-03
(PID.TID 0000.0001) %MON dynstat_eta_sd               =   7.2961339985133E-01
(PID.TID 0000.0001) %MON dynstat_eta_del2             =   2.2349854315181E-04
(PID.TID 0000.0001) %MON dynstat_uvel_max             =   1.2775909698402E+00
(PID.TID 0000.0001) %MON dynstat_uvel_min             =  -1.6784796202463E+00
(PID.TID 0000.0001) %MON dynstat_uvel_mean            =   2.0120207237731E-03
(PID.TID 0000.0001) %MON dynstat_uvel_sd              =   3.6723371602047E-02
(PID.TID 0000.0001) %MON dynstat_uvel_del2            =   6.9958124624862E-05
(PID.TID 0000.0001) %MON dynstat_vvel_max             =   1.3099128174953E+00
(PID.TID 0000.0001) %MON dynstat_vvel_min             =  -1.2295665537735E+00
(PID.TID 0000.0001) %MON dynstat_vvel_mean            =   1.1537739988064E-03
(PID.TID 0000.0001) %MON dynstat_vvel_sd              =   4.0933637325531E-02
(PID.TID 0000.0001) %MON dynstat_vvel_del2            =   6.7293533644420E-05
(PID.TID 0000.0001) %MON dynstat_wvel_max             =   2.6657276047166E-02
(PID.TID 0000.0001) %MON dynstat_wvel_min             =  -2.5920723731656E-02
(PID.TID 0000.0001) %MON dynstat_wvel_mean            =  -1.7812422639974E-21
(PID.TID 0000.0001) %MON dynstat_wvel_sd              =   7.5064133034455E-04
(PID.TID 0000.0001) %MON dynstat_wvel_del2            =   1.6275776010657E-06
(PID.TID 0000.0001) %MON dynstat_theta_max            =   3.2662684973491E+01
(PID.TID 0000.0001) %MON dynstat_theta_min            =  -2.7125345922326E+00
(PID.TID 0000.0001) %MON dynstat_theta_mean           =   3.5902105895856E+00
(PID.TID 0000.0001) %MON dynstat_theta_sd             =   4.4235167585617E+00
(PID.TID 0000.0001) %MON dynstat_theta_del2           =   2.6860499142384E-04
(PID.TID 0000.0001) %MON dynstat_salt_max             =   4.0711506885580E+01
(PID.TID 0000.0001) %MON dynstat_salt_min             =   1.8860552393129E+01
(PID.TID 0000.0001) %MON dynstat_salt_mean            =   3.4725512037220E+01
(PID.TID 0000.0001) %MON dynstat_salt_sd              =   3.6798573238638E-01
(PID.TID 0000.0001) %MON dynstat_salt_del2            =   1.1242994147961E-04
(PID.TID 0000.0001) %MON dynstat_sst_max              =   3.2652169465572E+01
(PID.TID 0000.0001) %MON dynstat_sst_min              =  -2.7125345922326E+00
(PID.TID 0000.0001) %MON dynstat_sst_mean             =   1.8269776763154E+01
(PID.TID 0000.0001) %MON dynstat_sst_sd               =   1.0220227389942E+01
(PID.TID 0000.0001) %MON dynstat_sst_del2             =   2.3821036539582E-03
(PID.TID 0000.0001) %MON dynstat_sss_max              =   3.9510258461682E+01
(PID.TID 0000.0001) %MON dynstat_sss_min              =   1.8896540745863E+01
(PID.TID 0000.0001) %MON dynstat_sss_mean             =   3.4783006369470E+01
(PID.TID 0000.0001) %MON dynstat_sss_sd               =   9.7986404186580E-01
(PID.TID 0000.0001) %MON dynstat_sss_del2             =   1.8524017052970E-03
(PID.TID 0000.0001) %MON forcing_qnet_max             =   4.9356494406036E+03
(PID.TID 0000.0001) %MON forcing_qnet_min             =  -3.7753143154762E+03
(PID.TID 0000.0001) %MON forcing_qnet_mean            =   1.7505445359476E+01
(PID.TID 0000.0001) %MON forcing_qnet_sd              =   2.1544863049711E+02
(PID.TID 0000.0001) %MON forcing_qnet_del2            =   9.8658294485387E-01
(PID.TID 0000.0001) %MON forcing_qsw_max              =   0.0000000000000E+00
(PID.TID 0000.0001) %MON forcing_qsw_min              =  -9.5992094007946E+01
(PID.TID 0000.0001) %MON forcing_qsw_mean             =  -1.3979313846437E+01
(PID.TID 0000.0001) %MON forcing_qsw_sd               =   2.2108173592696E+01
(PID.TID 0000.0001) %MON forcing_qsw_del2             =   3.7904531321074E-02
(PID.TID 0000.0001) %MON forcing_empmr_max            =   5.2374945953488E-03
(PID.TID 0000.0001) %MON forcing_empmr_min            =  -6.9042675197124E-02
(PID.TID 0000.0001) %MON forcing_empmr_mean           =  -4.7103311939387E-06
(PID.TID 0000.0001) %MON forcing_empmr_sd             =   3.3938216976491E-04
(PID.TID 0000.0001) %MON forcing_empmr_del2           =   2.8784644667960E-06
(PID.TID 0000.0001) %MON forcing_fu_max               =   1.0880164504051E+00
(PID.TID 0000.0001) %MON forcing_fu_min               =  -1.0038525462151E+00
(PID.TID 0000.0001) %MON forcing_fu_mean              =   1.2236203174791E-02
(PID.TID 0000.0001) %MON forcing_fu_sd                =   1.0946135264371E-01
(PID.TID 0000.0001) %MON forcing_fu_del2              =   1.6012040716481E-04
(PID.TID 0000.0001) %MON forcing_fv_max               =   7.4575707316398E-01
(PID.TID 0000.0001) %MON forcing_fv_min               =  -6.9648892367967E-01
(PID.TID 0000.0001) %MON forcing_fv_mean              =  -7.9597064795757E-03
(PID.TID 0000.0001) %MON forcing_fv_sd                =   1.0586779757912E-01
(PID.TID 0000.0001) %MON forcing_fv_del2              =   1.2726539438451E-04
(PID.TID 0000.0001) %MON trAdv_CFL_u_max              =   3.0536107190863E-02
(PID.TID 0000.0001) %MON trAdv_CFL_v_max              =   2.6103474230986E-02
(PID.TID 0000.0001) %MON trAdv_CFL_w_max              =   2.6673249247024E-01
(PID.TID 0000.0001) %MON advcfl_uvel_max              =   3.0450712263641E-02
(PID.TID 0000.0001) %MON advcfl_vvel_max              =   2.6161324605236E-02
(PID.TID 0000.0001) %MON advcfl_wvel_max              =   2.7723235453402E-01
(PID.TID 0000.0001) %MON advcfl_W_hf_max              =   2.8955379251330E-01
(PID.TID 0000.0001) %MON pe_b_mean                    =   7.0023306363454E-04
(PID.TID 0000.0001) %MON ke_max                       =   1.3500588229271E+00
(PID.TID 0000.0001) %MON ke_mean                      =   1.4608421035240E-03
(PID.TID 0000.0001) %MON ke_vol                       =   1.3350064351420E+18
(PID.TID 0000.0001) %MON vort_r_min                   =  -5.6836656510673E-05
(PID.TID 0000.0001) %MON vort_r_max                   =   6.3226653769863E-05
(PID.TID 0000.0001) %MON vort_a_mean                  =  -1.9725213241026E-05
(PID.TID 0000.0001) %MON vort_a_sd                    =   7.4540805701781E-05
(PID.TID 0000.0001) %MON vort_p_mean                  =  -2.1669263470803E-05
(PID.TID 0000.0001) %MON vort_p_sd                    =   9.3624349600021E-05
(PID.TID 0000.0001) %MON surfExpan_theta_mean         =  -3.6750202814345E-06
(PID.TID 0000.0001) %MON surfExpan_salt_mean          =  -4.2933021977012E-07
(PID.TID 0000.0001) // =======================================================
(PID.TID 0000.0001) // End MONITOR dynamic field statistics
(PID.TID 0000.0001) // =======================================================
 cg2d: Sum(rhs),rhsMax =   2.61433601973808E+01  4.56448767531423E+00
 cg2d: Sum(rhs),rhsMax =   2.57406557579618E+01  4.61930564669272E+00
 cg2d: Sum(rhs),rhsMax =   2.53966658095333E+01  4.66394719085340E+00
 cg2d: Sum(rhs),rhsMax =   2.51178554989381E+01  4.69733099095045E+00
 cg2d: Sum(rhs),rhsMax =   2.48786067273677E+01  4.72260620768769E+00
 cg2d: Sum(rhs),rhsMax =   2.45854900542195E+01  4.75764400239677E+00
 cg2d: Sum(rhs),rhsMax =   2.43341237840402E+01  4.78407889999542E+00
 cg2d: Sum(rhs),rhsMax =   2.41239765866376E+01  4.80198268917016E+00
(PID.TID 0000.0001)      cg2d_init_res =   7.70036997905188E-01
(PID.TID 0000.0001)      cg2d_iters(min,last) =      -1      23
(PID.TID 0000.0001)      cg2d_last_res =   8.36032776156616E-06
(PID.TID 0000.0001) // =======================================================
(PID.TID 0000.0001) // Begin MONITOR dynamic field statistics
(PID.TID 0000.0001) // =======================================================
(PID.TID 0000.0001) %MON time_tsnumber                =                    40
(PID.TID 0000.0001) %MON time_secondsf                =   3.6000000000000E+04
(PID.TID 0000.0001) %MON dynstat_eta_max              =   1.1888717210962E+00
(PID.TID 0000.0001) %MON dynstat_eta_min              =  -4.2719808193095E+00
(PID.TID 0000.0001) %MON dynstat_eta_mean             =  -1.3192133302442E-03
(PID.TID 0000.0001) %MON dynstat_eta_sd               =   7.2795743285731E-01
(PID.TID 0000.0001) %MON dynstat_eta_del2             =   2.2056650717771E-04
(PID.TID 0000.0001) %MON dynstat_uvel_max             =   1.4779241404439E+00
(PID.TID 0000.0001) %MON dynstat_uvel_min             =  -1.6938613521709E+00
(PID.TID 0000.0001) %MON dynstat_uvel_mean            =   1.7722902233460E-03
(PID.TID 0000.0001) %MON dynstat_uvel_sd              =   3.7493071356236E-02
(PID.TID 0000.0001) %MON dynstat_uvel_del2            =   7.5362925328956E-05
(PID.TID 0000.0001) %MON dynstat_vvel_max             =   1.3510527893487E+00
(PID.TID 0000.0001) %MON dynstat_vvel_min             =  -1.4193111816941E+00
(PID.TID 0000.0001) %MON dynstat_vvel_mean            =   1.5259543436586E-03
(PID.TID 0000.0001) %MON dynstat_vvel_sd              =   4.3549874566052E-02
(PID.TID 0000.0001) %MON dynstat_vvel_del2            =   7.4480322965334E-05
(PID.TID 0000.0001) %MON dynstat_wvel_max             =   2.2286251739854E-02
(PID.TID 0000.0001) %MON dynstat_wvel_min             =  -2.1869111008641E-02
(PID.TID 0000.0001) %MON dynstat_wvel_mean            =  -2.6371638713727E-21
(PID.TID 0000.0001) %MON dynstat_wvel_sd              =   6.7980588638496E-04
(PID.TID 0000.0001) %MON dynstat_wvel_del2            =   1.5390332214325E-06
(PID.TID 0000.0001) %MON dynstat_theta_max            =   3.2662953119946E+01
(PID.TID 0000.0001) %MON dynstat_theta_min            =  -2.7080285623736E+00
(PID.TID 0000.0001) %MON dynstat_theta_mean           =   3.5902087668279E+00
(PID.TID 0000.0001) %MON dynstat_theta_sd             =   4.4234640919747E+00
(PID.TID 0000.0001) %MON dynstat_theta_del2           =   2.5989877512293E-04
(PID.TID 0000.0001) %MON dynstat_salt_max             =   4.0711502893982E+01
(PID.TID 0000.0001) %MON dynstat_salt_min             =   1.8861096507480E+01
(PID.TID 0000.0001) %MON dynstat_salt_mean            =   3.4725492034580E+01
(PID.TID 0000.0001) %MON dynstat_salt_sd              =   3.6790665760983E-01
(PID.TID 0000.0001) %MON dynstat_salt_del2            =   1.0908920654916E-04
(PID.TID 0000.0001) %MON dynstat_sst_max              =   3.2658524737679E+01
(PID.TID 0000.0001) %MON dynstat_sst_min              =  -2.7080285623736E+00
(PID.TID 0000.0001) %MON dynstat_sst_mean             =   1.8263779872070E+01
(PID.TID 0000.0001) %MON dynstat_sst_sd               =   1.0219182128350E+01
(PID.TID 0000.0001) %MON dynstat_sst_del2             =   2.2894501807426E-03
(PID.TID 0000.0001) %MON dynstat_sss_max              =   3.9464756144100E+01
(PID.TID 0000.0001) %MON dynstat_sss_min              =   1.8893280182081E+01
(PID.TID 0000.0001) %MON dynstat_sss_mean             =   3.4781190957796E+01
(PID.TID 0000.0001) %MON dynstat_sss_sd               =   9.7874059539952E-01
(PID.TID 0000.0001) %MON dynstat_sss_del2             =   1.8022899506326E-03
(PID.TID 0000.0001) %MON forcing_qnet_max             =   1.5021266107833E+03
(PID.TID 0000.0001) %MON forcing_qnet_min             =  -5.9717545146593E+03
(PID.TID 0000.0001) %MON forcing_qnet_mean            =   4.0290385043008E+01
(PID.TID 0000.0001) %MON forcing_qnet_sd              =   2.0280765896013E+02
(PID.TID 0000.0001) %MON forcing_qnet_del2            =   9.5728618047672E-01
(PID.TID 0000.0001) %MON forcing_qsw_max              =   0.0000000000000E+00
(PID.TID 0000.0001) %MON forcing_qsw_min              =  -9.6171573799610E+01
(PID.TID 0000.0001) %MON forcing_qsw_mean             =  -1.2119747680533E+01
(PID.TID 0000.0001) %MON forcing_qsw_sd               =   2.2289432073463E+01
(PID.TID 0000.0001) %MON forcing_qsw_del2             =   3.6839483147114E-02
(PID.TID 0000.0001) %MON forcing_empmr_max            =   7.8557673841715E-03
(PID.TID 0000.0001) %MON forcing_empmr_min            =  -1.2150444090366E-01
(PID.TID 0000.0001) %MON forcing_empmr_mean           =  -7.4823752513990E-06
(PID.TID 0000.0001) %MON forcing_empmr_sd             =   4.6695487499522E-04
(PID.TID 0000.0001) %MON forcing_empmr_del2           =   4.6234438890106E-06
(PID.TID 0000.0001) %MON forcing_fu_max               =   1.0605982542038E+00
(PID.TID 0000.0001) %MON forcing_fu_min               =  -9.1095903515816E-01
(PID.TID 0000.0001) %MON forcing_fu_mean              =   1.2200284154529E-02
(PID.TID 0000.0001) %MON forcing_fu_sd                =   1.0743805504212E-01
(PID.TID 0000.0001) %MON forcing_fu_del2              =   1.5559900928700E-04
(PID.TID 0000.0001) %MON forcing_fv_max               =   7.6249474287033E-01
(PID.TID 0000.0001) %MON forcing_fv_min               =  -6.8479655268933E-01
(PID.TID 0000.0001) %MON forcing_fv_mean              =  -9.1621193246883E-03
(PID.TID 0000.0001) %MON forcing_fv_sd                =   1.0516017569862E-01
(PID.TID 0000.0001) %MON forcing_fv_del2              =   1.2383407057086E-04
(PID.TID 0000.0001) %MON trAdv_CFL_u_max              =   2.8064492885184E-02
(PID.TID 0000.0001) %MON trAdv_CFL_v_max              =   2.6998532636937E-02
(PID.TID 0000.0001) %MON trAdv_CFL_w_max              =   2.6323853208363E-01
(PID.TID 0000.0001) %MON advcfl_uvel_max              =   2.8024792871635E-02
(PID.TID 0000.0001) %MON advcfl_vvel_max              =   2.7107985495375E-02
(PID.TID 0000.0001) %MON advcfl_wvel_max              =   2.7396464730786E-01
(PID.TID 0000.0001) %MON advcfl_W_hf_max              =   2.8614085385487E-01
(PID.TID 0000.0001) %MON pe_b_mean                    =   6.9705795827241E-04
(PID.TID 0000.0001) %MON ke_max                       =   1.3453844564827E+00
(PID.TID 0000.0001) %MON ke_mean                      =   1.5950197146904E-03
(PID.TID 0000.0001) %MON ke_vol                       =   1.3350064351420E+18
(PID.TID 0000.0001) %MON vort_r_min                   =  -4.9528039031694E-05
(PID.TID 0000.0001) %MON vort_r_max                   =   5.7362213897720E-05
(PID.TID 0000.0001) %MON vort_a_mean                  =  -1.9725213241026E-05
(PID.TID 0000.0001) %MON vort_a_sd                    =   7.4541936592456E-05
(PID.TID 0000.0001) %MON vort_p_mean                  =  -2.1669263470803E-05
(PID.TID 0000.0001) %MON vort_p_sd                    =   9.3628251272254E-05
(PID.TID 0000.0001) %MON surfExpan_theta_mean         =  -9.1509185386425E-06
(PID.TID 0000.0001) %MON surfExpan_salt_mean          =  -6.4104337540169E-07
(PID.TID 0000.0001) // =======================================================
(PID.TID 0000.0001) // End MONITOR dynamic field statistics
(PID.TID 0000.0001) // =======================================================
 cg2d: Sum(rhs),rhsMax =   2.39620885701072E+01  4.80987412991616E+00
 cg2d: Sum(rhs),rhsMax =   2.38482630036340E+01  4.80700970179090E+00
 cg2d: Sum(rhs),rhsMax =   2.37886891363216E+01  4.79365953709533E+00
 cg2d: Sum(rhs),rhsMax =   2.37770116534407E+01  4.77071746630406E+00
 cg2d: Sum(rhs),rhsMax =   2.38008013332799E+01  4.73955299433942E+00
 cg2d: Sum(rhs),rhsMax =   2.38643479356051E+01  4.70050263895198E+00
 cg2d: Sum(rhs),rhsMax =   2.39629170591195E+01  4.65434960224369E+00
 cg2d: Sum(rhs),rhsMax =   2.40908364746228E+01  4.60276094664644E+00
(PID.TID 0000.0001)      cg2d_init_res =   6.99411819037151E-01
(PID.TID 0000.0001)      cg2d_iters(min,last) =      -1      22
(PID.TID 0000.0001)      cg2d_last_res =   6.77186069369561E-06
(PID.TID 0000.0001) // =======================================================
(PID.TID 0000.0001) // Begin MONITOR dynamic field statistics
(PID.TID 0000.0001) // =======================================================
(PID.TID 0000.0001) %MON time_tsnumber                =                    48
(PID.TID 0000.0001) %MON time_secondsf                =   4.3200000000000E+04
(PID.TID 0000.0001) %MON dynstat_eta_max              =   1.3538655069942E+00
(PID.TID 0000.0001) %MON dynstat_eta_min              =  -3.4911664899655E+00
(PID.TID 0000.0001) %MON dynstat_eta_mean             =  -1.2627455360365E-03
(PID.TID 0000.0001) %MON dynstat_eta_sd               =   7.2134459969634E-01
(PID.TID 0000.0001) %MON dynstat_eta_del2             =   2.1254454647403E-04
(PID.TID 0000.0001) %MON dynstat_uvel_max             =   1.6291815401879E+00
(PID.TID 0000.0001) %MON dynstat_uvel_min             =  -1.6962521477750E+00
(PID.TID 0000.0001) %MON dynstat_uvel_mean            =   1.6838973724126E-03
(PID.TID 0000.0001) %MON dynstat_uvel_sd              =   3.7885866283288E-02
(PID.TID 0000.0001) %MON dynstat_uvel_del2            =   7.8389012181397E-05
(PID.TID 0000.0001) %MON dynstat_vvel_max             =   1.4002247982700E+00
(PID.TID 0000.0001) %MON dynstat_vvel_min             =  -1.5936503131301E+00
(PID.TID 0000.0001) %MON dynstat_vvel_mean            =   1.8525608710351E-03
(PID.TID 0000.0001) %MON dynstat_vvel_sd              =   4.3426549153716E-02
(PID.TID 0000.0001) %MON dynstat_vvel_del2            =   7.8853811464568E-05
(PID.TID 0000.0001) %MON dynstat_wvel_max             =   1.8689778431703E-02
(PID.TID 0000.0001) %MON dynstat_wvel_min             =  -1.7946102329472E-02
(PID.TID 0000.0001) %MON dynstat_wvel_mean            =   1.7349762311663E-21
(PID.TID 0000.0001) %MON dynstat_wvel_sd              =   6.1264785782901E-04
(PID.TID 0000.0001) %MON dynstat_wvel_del2            =   1.4209697373551E-06
(PID.TID 0000.0001) %MON dynstat_theta_max            =   3.2662635326262E+01
(PID.TID 0000.0001) %MON dynstat_theta_min            =  -2.7075221353157E+00
(PID.TID 0000.0001) %MON dynstat_theta_mean           =   3.5902083505797E+00
(PID.TID 0000.0001) %MON dynstat_theta_sd             =   4.4234083178814E+00
(PID.TID 0000.0001) %MON dynstat_theta_del2           =   2.5142044102976E-04
(PID.TID 0000.0001) %MON dynstat_salt_max             =   4.0711500061920E+01
(PID.TID 0000.0001) %MON dynstat_salt_min             =   1.8861319886259E+01
(PID.TID 0000.0001) %MON dynstat_salt_mean            =   3.4725477833949E+01
(PID.TID 0000.0001) %MON dynstat_salt_sd              =   3.6784582055103E-01
(PID.TID 0000.0001) %MON dynstat_salt_del2            =   1.0599098369355E-04
(PID.TID 0000.0001) %MON dynstat_sst_max              =   3.2661218695032E+01
(PID.TID 0000.0001) %MON dynstat_sst_min              =  -2.7075221353157E+00
(PID.TID 0000.0001) %MON dynstat_sst_mean             =   1.8257541789977E+01
(PID.TID 0000.0001) %MON dynstat_sst_sd               =   1.0217935461530E+01
(PID.TID 0000.0001) %MON dynstat_sst_del2             =   2.2191368571766E-03
(PID.TID 0000.0001) %MON dynstat_sss_max              =   3.9421189078911E+01
(PID.TID 0000.0001) %MON dynstat_sss_min              =   1.8887698314061E+01
(PID.TID 0000.0001) %MON dynstat_sss_mean             =   3.4780481868783E+01
(PID.TID 0000.0001) %MON dynstat_sss_sd               =   9.7891578339358E-01
(PID.TID 0000.0001) %MON dynstat_sss_del2             =   1.7593224534308E-03
(PID.TID 0000.0001) %MON forcing_qnet_max             =   3.2999486716527E+03
(PID.TID 0000.0001) %MON forcing_qnet_min             =  -3.8345204573724E+03
(PID.TID 0000.0001) %MON forcing_qnet_mean            =   4.6216653697089E+01
(PID.TID 0000.0001) %MON forcing_qnet_sd              =   1.8941182496400E+02
(PID.TID 0000.0001) %MON forcing_qnet_del2            =   8.5667712791730E-01
(PID.TID 0000.0001) %MON forcing_qsw_max              =   0.0000000000000E+00
(PID.TID 0000.0001) %MON forcing_qsw_min              =  -9.6802761247314E+01
(PID.TID 0000.0001) %MON forcing_qsw_mean             =  -1.1577214781519E+01
(PID.TID 0000.0001) %MON forcing_qsw_sd               =   2.1368533338749E+01
(PID.TID 0000.0001) %MON forcing_qsw_del2             =   3.5640309581073E-02
(PID.TID 0000.0001) %MON forcing_empmr_max            =   5.5337185040116E-03
(PID.TID 0000.0001) %MON forcing_empmr_min            =  -1.3396003842354E-01
(PID.TID 0000.0001) %MON forcing_empmr_mean           =  -8.3547014678471E-06
(PID.TID 0000.0001) %MON forcing_empmr_sd             =   5.0250841440651E-04
(PID.TID 0000.0001) %MON forcing_empmr_del2           =   5.4597779694224E-06
(PID.TID 0000.0001) %MON forcing_fu_max               =   1.1115863323212E+00
(PID.TID 0000.0001) %MON forcing_fu_min               =  -8.5151341557503E-01
(PID.TID 0000.0001) %MON forcing_fu_mean              =   1.1829662578670E-02
(PID.TID 0000.0001) %MON forcing_fu_sd                =   1.0618871481272E-01
(PID.TID 0000.0001) %MON forcing_fu_del2              =   1.5192836629262E-04
(PID.TID 0000.0001) %MON forcing_fv_max               =   7.9837352037430E-01
(PID.TID 0000.0001) %MON forcing_fv_min               =  -7.4220888955976E-01
(PID.TID 0000.0001) %MON forcing_fv_mean              =  -1.0056975625718E-02
(PID.TID 0000.0001) %MON forcing_fv_sd                =   1.0408879853339E-01
(PID.TID 0000.0001) %MON forcing_fv_del2              =   1.2110433852358E-04
(PID.TID 0000.0001) %MON trAdv_CFL_u_max              =   2.7945230064439E-02
(PID.TID 0000.0001) %MON trAdv_CFL_v_max              =   3.1728546575871E-02
(PID.TID 0000.0001) %MON trAdv_CFL_w_max              =   2.3997036519288E-01
(PID.TID 0000.0001) %MON advcfl_uvel_max              =   2.8064348382786E-02
(PID.TID 0000.0001) %MON advcfl_vvel_max              =   3.1841821687799E-02
(PID.TID 0000.0001) %MON advcfl_wvel_max              =   2.4985180026412E-01
(PID.TID 0000.0001) %MON advcfl_W_hf_max              =   2.6095632472031E-01
(PID.TID 0000.0001) %MON pe_b_mean                    =   6.8445105072977E-04
(PID.TID 0000.0001) %MON ke_max                       =   1.5577860250647E+00
(PID.TID 0000.0001) %MON ke_mean                      =   1.6045067318586E-03
(PID.TID 0000.0001) %MON ke_vol                       =   1.3350064351420E+18
(PID.TID 0000.0001) %MON vort_r_min                   =  -5.7073347683341E-05
(PID.TID 0000.0001) %MON vort_r_max                   =   5.0560169507529E-05
(PID.TID 0000.0001) %MON vort_a_mean                  =  -1.9725213241026E-05
(PID.TID 0000.0001) %MON vort_a_sd                    =   7.4542585285421E-05
(PID.TID 0000.0001) %MON vort_p_mean                  =  -2.1669263470803E-05
(PID.TID 0000.0001) %MON vort_p_sd                    =   9.3628742936266E-05
(PID.TID 0000.0001) %MON surfExpan_theta_mean         =  -1.1411984410297E-05
(PID.TID 0000.0001) %MON surfExpan_salt_mean          =  -7.7394776231383E-07
(PID.TID 0000.0001) // =======================================================
(PID.TID 0000.0001) // End MONITOR dynamic field statistics
(PID.TID 0000.0001) // =======================================================
 cg2d: Sum(rhs),rhsMax =   2.42496998248109E+01  4.54629952946863E+00
 cg2d: Sum(rhs),rhsMax =   2.44316981955087E+01  4.48606885849741E+00
 cg2d: Sum(rhs),rhsMax =   2.46369610712534E+01  4.42231452067560E+00
 cg2d: Sum(rhs),rhsMax =   2.48663579007032E+01  4.35483397211589E+00
 cg2d: Sum(rhs),rhsMax =   2.51290687382309E+01  4.28363274812178E+00
 cg2d: Sum(rhs),rhsMax =   2.54299175270967E+01  4.20804742817821E+00
 cg2d: Sum(rhs),rhsMax =   2.57671622798969E+01  4.12779638294056E+00
 cg2d: Sum(rhs),rhsMax =   2.61521126578868E+01  4.04223613350947E+00
(PID.TID 0000.0001)      cg2d_init_res =   7.31521152142666E-01
(PID.TID 0000.0001)      cg2d_iters(min,last) =      -1      23
(PID.TID 0000.0001)      cg2d_last_res =   8.12096607680875E-06
(PID.TID 0000.0001) // =======================================================
(PID.TID 0000.0001) // Begin MONITOR dynamic field statistics
(PID.TID 0000.0001) // =======================================================
(PID.TID 0000.0001) %MON time_tsnumber                =                    56
(PID.TID 0000.0001) %MON time_secondsf                =   5.0400000000000E+04
(PID.TID 0000.0001) %MON dynstat_eta_max              =   1.1418967290397E+00
(PID.TID 0000.0001) %MON dynstat_eta_min              =  -3.3765095807132E+00
(PID.TID 0000.0001) %MON dynstat_eta_mean             =  -1.2038545013814E-03
(PID.TID 0000.0001) %MON dynstat_eta_sd               =   7.1451159967032E-01
(PID.TID 0000.0001) %MON dynstat_eta_del2             =   2.0240955278240E-04
(PID.TID 0000.0001) %MON dynstat_uvel_max             =   1.8383206362060E+00
(PID.TID 0000.0001) %MON dynstat_uvel_min             =  -1.6917846684446E+00
(PID.TID 0000.0001) %MON dynstat_uvel_mean            =   1.5873068054051E-03
(PID.TID 0000.0001) %MON dynstat_uvel_sd              =   3.7850901368767E-02
(PID.TID 0000.0001) %MON dynstat_uvel_del2            =   7.9550819968646E-05
(PID.TID 0000.0001) %MON dynstat_vvel_max             =   1.5045912848190E+00
(PID.TID 0000.0001) %MON dynstat_vvel_min             =  -1.7958916430465E+00
(PID.TID 0000.0001) %MON dynstat_vvel_mean            =   2.0468065077180E-03
(PID.TID 0000.0001) %MON dynstat_vvel_sd              =   4.1435346693988E-02
(PID.TID 0000.0001) %MON dynstat_vvel_del2            =   8.0734470113739E-05
(PID.TID 0000.0001) %MON dynstat_wvel_max             =   1.5945618670480E-02
(PID.TID 0000.0001) %MON dynstat_wvel_min             =  -1.6464865172808E-02
(PID.TID 0000.0001) %MON dynstat_wvel_mean            =   2.9610261011904E-21
(PID.TID 0000.0001) %MON dynstat_wvel_sd              =   5.7618244481048E-04
(PID.TID 0000.0001) %MON dynstat_wvel_del2            =   1.3159500510027E-06
(PID.TID 0000.0001) %MON dynstat_theta_max            =   3.2662010794185E+01
(PID.TID 0000.0001) %MON dynstat_theta_min            =  -2.7025439039015E+00
(PID.TID 0000.0001) %MON dynstat_theta_mean           =   3.5902091412930E+00
(PID.TID 0000.0001) %MON dynstat_theta_sd             =   4.4233512666736E+00
(PID.TID 0000.0001) %MON dynstat_theta_del2           =   2.4401402973973E-04
(PID.TID 0000.0001) %MON dynstat_salt_max             =   4.0711497862466E+01
(PID.TID 0000.0001) %MON dynstat_salt_min             =   1.8861444540254E+01
(PID.TID 0000.0001) %MON dynstat_salt_mean            =   3.4725468354777E+01
(PID.TID 0000.0001) %MON dynstat_salt_sd              =   3.6780585207493E-01
(PID.TID 0000.0001) %MON dynstat_salt_del2            =   1.0334929983605E-04
(PID.TID 0000.0001) %MON dynstat_sst_max              =   3.2657003367789E+01
(PID.TID 0000.0001) %MON dynstat_sst_min              =  -2.7025439039015E+00
(PID.TID 0000.0001) %MON dynstat_sst_mean             =   1.8253584854597E+01
(PID.TID 0000.0001) %MON dynstat_sst_sd               =   1.0217381698927E+01
(PID.TID 0000.0001) %MON dynstat_sst_del2             =   2.1657684583697E-03
(PID.TID 0000.0001) %MON dynstat_sss_max              =   3.9380188156228E+01
(PID.TID 0000.0001) %MON dynstat_sss_min              =   1.8882728728166E+01
(PID.TID 0000.0001) %MON dynstat_sss_mean             =   3.4779929018443E+01
(PID.TID 0000.0001) %MON dynstat_sss_sd               =   9.7939635410938E-01
(PID.TID 0000.0001) %MON dynstat_sss_del2             =   1.7272937843890E-03
(PID.TID 0000.0001) %MON forcing_qnet_max             =   3.3267832031250E+03
(PID.TID 0000.0001) %MON forcing_qnet_min             =  -3.2930186367439E+03
(PID.TID 0000.0001) %MON forcing_qnet_mean            =   3.2358767237561E+01
(PID.TID 0000.0001) %MON forcing_qnet_sd              =   1.8763720026685E+02
(PID.TID 0000.0001) %MON forcing_qnet_del2            =   7.9206042040153E-01
(PID.TID 0000.0001) %MON forcing_qsw_max              =   0.0000000000000E+00
(PID.TID 0000.0001) %MON forcing_qsw_min              =  -9.0696734383315E+01
(PID.TID 0000.0001) %MON forcing_qsw_mean             =  -1.2504986606523E+01
(PID.TID 0000.0001) %MON forcing_qsw_sd               =   2.1126285061499E+01
(PID.TID 0000.0001) %MON forcing_qsw_del2             =   3.6016071153282E-02
(PID.TID 0000.0001) %MON forcing_empmr_max            =   5.9490189887583E-03
(PID.TID 0000.0001) %MON forcing_empmr_min            =  -1.1240690201521E-01
(PID.TID 0000.0001) %MON forcing_empmr_mean           =  -8.3687189215671E-06
(PID.TID 0000.0001) %MON forcing_empmr_sd             =   4.2970241624033E-04
(PID.TID 0000.0001) %MON forcing_empmr_del2           =   4.8327393393888E-06
(PID.TID 0000.0001) %MON forcing_fu_max               =   1.0950679183006E+00
(PID.TID 0000.0001) %MON forcing_fu_min               =  -7.9105740785599E-01
(PID.TID 0000.0001) %MON forcing_fu_mean              =   1.1076425125007E-02
(PID.TID 0000.0001) %MON forcing_fu_sd                =   1.0426780503287E-01
(PID.TID 0000.0001) %MON forcing_fu_del2              =   1.4649789502776E-04
(PID.TID 0000.0001) %MON forcing_fv_max               =   8.2708117365837E-01
(PID.TID 0000.0001) %MON forcing_fv_min               =  -8.1800574375397E-01
(PID.TID 0000.0001) %MON forcing_fv_mean              =  -1.0312608975140E-02
(PID.TID 0000.0001) %MON forcing_fv_sd                =   1.0288690758850E-01
(PID.TID 0000.0001) %MON forcing_fv_del2              =   1.1992539952148E-04
(PID.TID 0000.0001) %MON trAdv_CFL_u_max              =   3.5119660518823E-02
(PID.TID 0000.0001) %MON trAdv_CFL_v_max              =   3.6331517672248E-02
(PID.TID 0000.0001) %MON trAdv_CFL_w_max              =   2.0599580783491E-01
(PID.TID 0000.0001) %MON advcfl_uvel_max              =   3.4768406473066E-02
(PID.TID 0000.0001) %MON advcfl_vvel_max              =   3.6461226000393E-02
(PID.TID 0000.0001) %MON advcfl_wvel_max              =   2.1435675257182E-01
(PID.TID 0000.0001) %MON advcfl_W_hf_max              =   2.2388371935279E-01
(PID.TID 0000.0001) %MON pe_b_mean                    =   6.7154526964889E-04
(PID.TID 0000.0001) %MON ke_max                       =   2.2631117630988E+00
(PID.TID 0000.0001) %MON ke_mean                      =   1.5219525178002E-03
(PID.TID 0000.0001) %MON ke_vol                       =   1.3350064351420E+18
(PID.TID 0000.0001) %MON vort_r_min                   =  -6.2819591952724E-05
(PID.TID 0000.0001) %MON vort_r_max                   =   6.4799339611203E-05
(PID.TID 0000.0001) %MON vort_a_mean                  =  -1.9725213241026E-05
(PID.TID 0000.0001) %MON vort_a_sd                    =   7.4542713848590E-05
(PID.TID 0000.0001) %MON vort_p_mean                  =  -2.1669263470803E-05
(PID.TID 0000.0001) %MON vort_p_sd                    =   9.3627194518320E-05
(PID.TID 0000.0001) %MON surfExpan_theta_mean         =  -8.3777421791266E-06
(PID.TID 0000.0001) %MON surfExpan_salt_mean          =  -1.2163036635192E-06
(PID.TID 0000.0001) // =======================================================
(PID.TID 0000.0001) // End MONITOR dynamic field statistics
(PID.TID 0000.0001) // =======================================================
 cg2d: Sum(rhs),rhsMax =   2.65942032368396E+01  3.95111596170184E+00
 cg2d: Sum(rhs),rhsMax =   2.71004856258121E+01  3.85441315449107E+00
 cg2d: Sum(rhs),rhsMax =   2.76689592402688E+01  3.75217490391771E+00
 cg2d: Sum(rhs),rhsMax =   2.82872651021678E+01  3.64668976170011E+00
 cg2d: Sum(rhs),rhsMax =   2.86297484693080E+01  3.57936934881538E+00
 cg2d: Sum(rhs),rhsMax =   2.90256320244332E+01  3.50696000283804E+00
 cg2d: Sum(rhs),rhsMax =   2.94854026223500E+01  3.42977143669243E+00
 cg2d: Sum(rhs),rhsMax =   3.00119058631333E+01  3.34792851600426E+00
(PID.TID 0000.0001)      cg2d_init_res =   8.51473949199344E-01
(PID.TID 0000.0001)      cg2d_iters(min,last) =      -1      23
(PID.TID 0000.0001)      cg2d_last_res =   9.23151392006119E-06
(PID.TID 0000.0001) // =======================================================
(PID.TID 0000.0001) // Begin MONITOR dynamic field statistics
(PID.TID 0000.0001) // =======================================================
(PID.TID 0000.0001) %MON time_tsnumber                =                    64
(PID.TID 0000.0001) %MON time_secondsf                =   5.7600000000000E+04
(PID.TID 0000.0001) %MON dynstat_eta_max              =   1.0934449962459E+00
(PID.TID 0000.0001) %MON dynstat_eta_min              =  -2.9691479207040E+00
(PID.TID 0000.0001) %MON dynstat_eta_mean             =  -1.1442351760176E-03
(PID.TID 0000.0001) %MON dynstat_eta_sd               =   7.0776681537626E-01
(PID.TID 0000.0001) %MON dynstat_eta_del2             =   1.9174944894368E-04
(PID.TID 0000.0001) %MON dynstat_uvel_max             =   1.7844067870820E+00
(PID.TID 0000.0001) %MON dynstat_uvel_min             =  -1.5750889078871E+00
(PID.TID 0000.0001) %MON dynstat_uvel_mean            =   1.4207294311178E-03
(PID.TID 0000.0001) %MON dynstat_uvel_sd              =   3.6995057598105E-02
(PID.TID 0000.0001) %MON dynstat_uvel_del2            =   7.9091014263392E-05
(PID.TID 0000.0001) %MON dynstat_vvel_max             =   1.5194558250322E+00
(PID.TID 0000.0001) %MON dynstat_vvel_min             =  -1.6110999683136E+00
(PID.TID 0000.0001) %MON dynstat_vvel_mean            =   1.9825696119288E-03
(PID.TID 0000.0001) %MON dynstat_vvel_sd              =   3.9041870486451E-02
(PID.TID 0000.0001) %MON dynstat_vvel_del2            =   8.0682790090299E-05
(PID.TID 0000.0001) %MON dynstat_wvel_max             =   1.6643001938132E-02
(PID.TID 0000.0001) %MON dynstat_wvel_min             =  -1.5427118172155E-02
(PID.TID 0000.0001) %MON dynstat_wvel_mean            =   1.3185819356864E-21
(PID.TID 0000.0001) %MON dynstat_wvel_sd              =   5.5366157484153E-04
(PID.TID 0000.0001) %MON dynstat_wvel_del2            =   1.2278276345912E-06
(PID.TID 0000.0001) %MON dynstat_theta_max            =   3.2653168540972E+01
(PID.TID 0000.0001) %MON dynstat_theta_min            =  -2.6987356082784E+00
(PID.TID 0000.0001) %MON dynstat_theta_mean           =   3.5902112181651E+00
(PID.TID 0000.0001) %MON dynstat_theta_sd             =   4.4232993904139E+00
(PID.TID 0000.0001) %MON dynstat_theta_del2           =   2.3798579095841E-04
(PID.TID 0000.0001) %MON dynstat_salt_max             =   4.0711495731658E+01
(PID.TID 0000.0001) %MON dynstat_salt_min             =   1.8861696515587E+01
(PID.TID 0000.0001) %MON dynstat_salt_mean            =   3.4725461564957E+01
(PID.TID 0000.0001) %MON dynstat_salt_sd              =   3.6777574382106E-01
(PID.TID 0000.0001) %MON dynstat_salt_del2            =   1.0100237038125E-04
(PID.TID 0000.0001) %MON dynstat_sst_max              =   3.2621222613307E+01
(PID.TID 0000.0001) %MON dynstat_sst_min              =  -2.6987356082784E+00
(PID.TID 0000.0001) %MON dynstat_sst_mean             =   1.8252165389717E+01
(PID.TID 0000.0001) %MON dynstat_sst_sd               =   1.0217491060769E+01
(PID.TID 0000.0001) %MON dynstat_sst_del2             =   2.1185421666482E-03
(PID.TID 0000.0001) %MON dynstat_sss_max              =   3.9339259469791E+01
(PID.TID 0000.0001) %MON dynstat_sss_min              =   1.8878411819345E+01
(PID.TID 0000.0001) %MON dynstat_sss_mean             =   3.4779527068430E+01
(PID.TID 0000.0001) %MON dynstat_sss_sd               =   9.7989043865480E-01
(PID.TID 0000.0001) %MON dynstat_sss_del2             =   1.6975937873072E-03
(PID.TID 0000.0001) %MON forcing_qnet_max             =   1.3124879180970E+03
(PID.TID 0000.0001) %MON forcing_qnet_min             =  -4.8659091796875E+03
(PID.TID 0000.0001) %MON forcing_qnet_mean            =   1.7658808790048E+01
(PID.TID 0000.0001) %MON forcing_qnet_sd              =   2.0238303899487E+02
(PID.TID 0000.0001) %MON forcing_qnet_del2            =   8.4642508389273E-01
(PID.TID 0000.0001) %MON forcing_qsw_max              =   0.0000000000000E+00
(PID.TID 0000.0001) %MON forcing_qsw_min              =  -9.4460404869964E+01
(PID.TID 0000.0001) %MON forcing_qsw_mean             =  -1.3539544285009E+01
(PID.TID 0000.0001) %MON forcing_qsw_sd               =   2.3786218044584E+01
(PID.TID 0000.0001) %MON forcing_qsw_del2             =   3.8671000155823E-02
(PID.TID 0000.0001) %MON forcing_empmr_max            =   8.9569771662354E-03
(PID.TID 0000.0001) %MON forcing_empmr_min            =  -8.4994070231915E-02
(PID.TID 0000.0001) %MON forcing_empmr_mean           =  -8.4696570857225E-06
(PID.TID 0000.0001) %MON forcing_empmr_sd             =   3.3758586701123E-04
(PID.TID 0000.0001) %MON forcing_empmr_del2           =   3.6148733152030E-06
(PID.TID 0000.0001) %MON forcing_fu_max               =   1.0879125595093E+00
(PID.TID 0000.0001) %MON forcing_fu_min               =  -7.0086437463760E-01
(PID.TID 0000.0001) %MON forcing_fu_mean              =   1.0403592792381E-02
(PID.TID 0000.0001) %MON forcing_fu_sd                =   1.0288302562152E-01
(PID.TID 0000.0001) %MON forcing_fu_del2              =   1.4344195930931E-04
(PID.TID 0000.0001) %MON forcing_fv_max               =   8.7822836637497E-01
(PID.TID 0000.0001) %MON forcing_fv_min               =  -7.9740601855141E-01
(PID.TID 0000.0001) %MON forcing_fv_mean              =  -1.0101424393776E-02
(PID.TID 0000.0001) %MON forcing_fv_sd                =   1.0207223588957E-01
(PID.TID 0000.0001) %MON forcing_fv_del2              =   1.1891762020165E-04
(PID.TID 0000.0001) %MON trAdv_CFL_u_max              =   3.3999419251535E-02
(PID.TID 0000.0001) %MON trAdv_CFL_v_max              =   3.2593117294787E-02
(PID.TID 0000.0001) %MON trAdv_CFL_w_max              =   1.9167753913900E-01
(PID.TID 0000.0001) %MON advcfl_uvel_max              =   3.3659369450680E-02
(PID.TID 0000.0001) %MON advcfl_vvel_max              =   3.2709479038645E-02
(PID.TID 0000.0001) %MON advcfl_wvel_max              =   1.8206361979347E-01
(PID.TID 0000.0001) %MON advcfl_W_hf_max              =   1.9167753913900E-01
(PID.TID 0000.0001) %MON pe_b_mean                    =   6.5892657254423E-04
(PID.TID 0000.0001) %MON ke_max                       =   1.9294723090476E+00
(PID.TID 0000.0001) %MON ke_mean                      =   1.3978106207610E-03
(PID.TID 0000.0001) %MON ke_vol                       =   1.3350064351420E+18
(PID.TID 0000.0001) %MON vort_r_min                   =  -5.2377432453190E-05
(PID.TID 0000.0001) %MON vort_r_max                   =   6.3782254438468E-05
(PID.TID 0000.0001) %MON vort_a_mean                  =  -1.9725213241026E-05
(PID.TID 0000.0001) %MON vort_a_sd                    =   7.4542489258282E-05
(PID.TID 0000.0001) %MON vort_p_mean                  =  -2.1669263470803E-05
(PID.TID 0000.0001) %MON vort_p_sd                    =   9.3624922352907E-05
(PID.TID 0000.0001) %MON surfExpan_theta_mean         =  -6.2551519759473E-06
(PID.TID 0000.0001) %MON surfExpan_salt_mean          =  -6.1812903163320E-07
(PID.TID 0000.0001) // =======================================================
(PID.TID 0000.0001) // End MONITOR dynamic field statistics
(PID.TID 0000.0001) // =======================================================
 cg2d: Sum(rhs),rhsMax =   3.05948908955127E+01  3.26219845915666E+00
 cg2d: Sum(rhs),rhsMax =   3.12427512229060E+01  3.17297144320018E+00
 cg2d: Sum(rhs),rhsMax =   3.19535052752960E+01  3.08098826731628E+00
 cg2d: Sum(rhs),rhsMax =   3.21510038812492E+01  3.04051320793051E+00
 cg2d: Sum(rhs),rhsMax =   3.20357184207719E+01  3.02937278638082E+00
 cg2d: Sum(rhs),rhsMax =   3.18505235885450E+01  3.02391784532360E+00
 cg2d: Sum(rhs),rhsMax =   3.16678654934922E+01  3.01789740980145E+00
 cg2d: Sum(rhs),rhsMax =   3.14938726137771E+01  3.01137289116096E+00
(PID.TID 0000.0001)      cg2d_init_res =   8.77644460198206E-01
(PID.TID 0000.0001)      cg2d_iters(min,last) =      -1      23
(PID.TID 0000.0001)      cg2d_last_res =   9.53038649156843E-06
(PID.TID 0000.0001) // =======================================================
(PID.TID 0000.0001) // Begin MONITOR dynamic field statistics
(PID.TID 0000.0001) // =======================================================
(PID.TID 0000.0001) %MON time_tsnumber                =                    72
(PID.TID 0000.0001) %MON time_secondsf                =   6.4800000000000E+04
(PID.TID 0000.0001) %MON dynstat_eta_max              =   1.0567699064061E+00
(PID.TID 0000.0001) %MON dynstat_eta_min              =  -3.1958536182715E+00
(PID.TID 0000.0001) %MON dynstat_eta_mean             =  -1.0800308122557E-03
(PID.TID 0000.0001) %MON dynstat_eta_sd               =   7.0149884776651E-01
(PID.TID 0000.0001) %MON dynstat_eta_del2             =   1.7972773118305E-04
(PID.TID 0000.0001) %MON dynstat_uvel_max             =   1.7919304770804E+00
(PID.TID 0000.0001) %MON dynstat_uvel_min             =  -1.5979300051471E+00
(PID.TID 0000.0001) %MON dynstat_uvel_mean            =   1.1763438428223E-03
(PID.TID 0000.0001) %MON dynstat_uvel_sd              =   3.5585720681846E-02
(PID.TID 0000.0001) %MON dynstat_uvel_del2            =   7.7299604875116E-05
(PID.TID 0000.0001) %MON dynstat_vvel_max             =   1.4961804228098E+00
(PID.TID 0000.0001) %MON dynstat_vvel_min             =  -1.1082728931526E+00
(PID.TID 0000.0001) %MON dynstat_vvel_mean            =   1.8492518196335E-03
(PID.TID 0000.0001) %MON dynstat_vvel_sd              =   3.7220107365678E-02
(PID.TID 0000.0001) %MON dynstat_vvel_del2            =   7.9308215088753E-05
(PID.TID 0000.0001) %MON dynstat_wvel_max             =   1.5302022580327E-02
(PID.TID 0000.0001) %MON dynstat_wvel_min             =  -1.3231167302623E-02
(PID.TID 0000.0001) %MON dynstat_wvel_mean            =  -4.7422683651878E-21
(PID.TID 0000.0001) %MON dynstat_wvel_sd              =   5.2225425345039E-04
(PID.TID 0000.0001) %MON dynstat_wvel_del2            =   1.1459329840356E-06
(PID.TID 0000.0001) %MON dynstat_theta_max            =   3.2634304333348E+01
(PID.TID 0000.0001) %MON dynstat_theta_min            =  -2.6838696192473E+00
(PID.TID 0000.0001) %MON dynstat_theta_mean           =   3.5902189612116E+00
(PID.TID 0000.0001) %MON dynstat_theta_sd             =   4.4232818322310E+00
(PID.TID 0000.0001) %MON dynstat_theta_del2           =   2.3351874637241E-04
(PID.TID 0000.0001) %MON dynstat_salt_max             =   4.0711493375438E+01
(PID.TID 0000.0001) %MON dynstat_salt_min             =   1.8863875885476E+01
(PID.TID 0000.0001) %MON dynstat_salt_mean            =   3.4725455625387E+01
(PID.TID 0000.0001) %MON dynstat_salt_sd              =   3.6775025510181E-01
(PID.TID 0000.0001) %MON dynstat_salt_del2            =   9.8785476187661E-05
(PID.TID 0000.0001) %MON dynstat_sst_max              =   3.2604078850161E+01
(PID.TID 0000.0001) %MON dynstat_sst_min              =  -2.6838696192473E+00
(PID.TID 0000.0001) %MON dynstat_sst_mean             =   1.8252888364928E+01
(PID.TID 0000.0001) %MON dynstat_sst_sd               =   1.0218705761472E+01
(PID.TID 0000.0001) %MON dynstat_sst_del2             =   2.0803214204114E-03
(PID.TID 0000.0001) %MON dynstat_sss_max              =   3.9297176752797E+01
(PID.TID 0000.0001) %MON dynstat_sss_min              =   1.8876461543191E+01
(PID.TID 0000.0001) %MON dynstat_sss_mean             =   3.4779190261618E+01
(PID.TID 0000.0001) %MON dynstat_sss_sd               =   9.8030394545784E-01
(PID.TID 0000.0001) %MON dynstat_sss_del2             =   1.6638261068897E-03
(PID.TID 0000.0001) %MON forcing_qnet_max             =   3.2846987304688E+03
(PID.TID 0000.0001) %MON forcing_qnet_min             =  -6.5250493164062E+03
(PID.TID 0000.0001) %MON forcing_qnet_mean            =   4.6654557203993E+00
(PID.TID 0000.0001) %MON forcing_qnet_sd              =   2.1128202574307E+02
(PID.TID 0000.0001) %MON forcing_qnet_del2            =   7.7246432898654E-01
(PID.TID 0000.0001) %MON forcing_qsw_max              =   0.0000000000000E+00
(PID.TID 0000.0001) %MON forcing_qsw_min              =  -9.5573202148993E+01
(PID.TID 0000.0001) %MON forcing_qsw_mean             =  -1.4817700460559E+01
(PID.TID 0000.0001) %MON forcing_qsw_sd               =   2.5344832622336E+01
(PID.TID 0000.0001) %MON forcing_qsw_del2             =   3.9889109713493E-02
(PID.TID 0000.0001) %MON forcing_empmr_max            =   9.4083659350872E-03
(PID.TID 0000.0001) %MON forcing_empmr_min            =  -8.3164170384407E-02
(PID.TID 0000.0001) %MON forcing_empmr_mean           =  -9.4074632200814E-06
(PID.TID 0000.0001) %MON forcing_empmr_sd             =   3.5760677908683E-04
(PID.TID 0000.0001) %MON forcing_empmr_del2           =   2.7817741630773E-06
(PID.TID 0000.0001) %MON forcing_fu_max               =   1.0023213028908E+00
(PID.TID 0000.0001) %MON forcing_fu_min               =  -6.5551632642746E-01
(PID.TID 0000.0001) %MON forcing_fu_mean              =   9.9195275937510E-03
(PID.TID 0000.0001) %MON forcing_fu_sd                =   1.0130340693771E-01
(PID.TID 0000.0001) %MON forcing_fu_del2              =   1.4103672975510E-04
(PID.TID 0000.0001) %MON forcing_fv_max               =   8.9530074596405E-01
(PID.TID 0000.0001) %MON forcing_fv_min               =  -7.9293049651269E-01
(PID.TID 0000.0001) %MON forcing_fv_mean              =  -1.0194837836245E-02
(PID.TID 0000.0001) %MON forcing_fv_sd                =   1.0132761738185E-01
(PID.TID 0000.0001) %MON forcing_fv_del2              =   1.1670456981255E-04
(PID.TID 0000.0001) %MON trAdv_CFL_u_max              =   2.6145053021487E-02
(PID.TID 0000.0001) %MON trAdv_CFL_v_max              =   2.6554658192809E-02
(PID.TID 0000.0001) %MON trAdv_CFL_w_max              =   1.7476551417938E-01
(PID.TID 0000.0001) %MON advcfl_uvel_max              =   2.6437616845219E-02
(PID.TID 0000.0001) %MON advcfl_vvel_max              =   2.6558377430844E-02
(PID.TID 0000.0001) %MON advcfl_wvel_max              =   1.8042941195801E-01
(PID.TID 0000.0001) %MON advcfl_W_hf_max              =   1.8844849693392E-01
(PID.TID 0000.0001) %MON pe_b_mean                    =   6.4730721463952E-04
(PID.TID 0000.0001) %MON ke_max                       =   1.4580404029410E+00
(PID.TID 0000.0001) %MON ke_mean                      =   1.2809410834131E-03
(PID.TID 0000.0001) %MON ke_vol                       =   1.3350064351420E+18
(PID.TID 0000.0001) %MON vort_r_min                   =  -4.4462169613627E-05
(PID.TID 0000.0001) %MON vort_r_max                   =   4.8673830704561E-05
(PID.TID 0000.0001) %MON vort_a_mean                  =  -1.9725213241026E-05
(PID.TID 0000.0001) %MON vort_a_sd                    =   7.4542154952649E-05
(PID.TID 0000.0001) %MON vort_p_mean                  =  -2.1669263470803E-05
(PID.TID 0000.0001) %MON vort_p_sd                    =   9.3623410626353E-05
(PID.TID 0000.0001) %MON surfExpan_theta_mean         =  -7.0148961598249E-06
(PID.TID 0000.0001) %MON surfExpan_salt_mean          =  -4.5270984384325E-07
(PID.TID 0000.0001) // =======================================================
(PID.TID 0000.0001) // End MONITOR dynamic field statistics
(PID.TID 0000.0001) // =======================================================
 cg2d: Sum(rhs),rhsMax =   3.13204505263773E+01  3.00442119749574E+00
 cg2d: Sum(rhs),rhsMax =   3.11494528567034E+01  2.99713261154755E+00
 cg2d: Sum(rhs),rhsMax =   3.09737141837522E+01  2.99017584486553E+00
 cg2d: Sum(rhs),rhsMax =   3.07372610684715E+01  2.98832608273562E+00
 cg2d: Sum(rhs),rhsMax =   3.05119420140506E+01  2.98586224446146E+00
 cg2d: Sum(rhs),rhsMax =   3.02975017450274E+01  2.98235017323444E+00
 cg2d: Sum(rhs),rhsMax =   3.00936298564579E+01  2.97777825079687E+00
 cg2d: Sum(rhs),rhsMax =   2.99026185540743E+01  2.97264900074743E+00
(PID.TID 0000.0001)      cg2d_init_res =   8.17238511225520E-01
(PID.TID 0000.0001)      cg2d_iters(min,last) =      -1      23
(PID.TID 0000.0001)      cg2d_last_res =   7.81449755743148E-06
(PID.TID 0000.0001) // =======================================================
(PID.TID 0000.0001) // Begin MONITOR dynamic field statistics
(PID.TID 0000.0001) // =======================================================
(PID.TID 0000.0001) %MON time_tsnumber                =                    80
(PID.TID 0000.0001) %MON time_secondsf                =   7.2000000000000E+04
(PID.TID 0000.0001) %MON dynstat_eta_max              =   1.0475691173636E+00
(PID.TID 0000.0001) %MON dynstat_eta_min              =  -3.1114215907479E+00
(PID.TID 0000.0001) %MON dynstat_eta_mean             =  -1.0122747311024E-03
(PID.TID 0000.0001) %MON dynstat_eta_sd               =   6.9795643400894E-01
(PID.TID 0000.0001) %MON dynstat_eta_del2             =   1.7138925087571E-04
(PID.TID 0000.0001) %MON dynstat_uvel_max             =   1.7557400859302E+00
(PID.TID 0000.0001) %MON dynstat_uvel_min             =  -1.5833671504848E+00
(PID.TID 0000.0001) %MON dynstat_uvel_mean            =   9.1904801884546E-04
(PID.TID 0000.0001) %MON dynstat_uvel_sd              =   3.4507554813257E-02
(PID.TID 0000.0001) %MON dynstat_uvel_del2            =   7.4716631441948E-05
(PID.TID 0000.0001) %MON dynstat_vvel_max             =   1.4745908392085E+00
(PID.TID 0000.0001) %MON dynstat_vvel_min             =  -1.0168841925299E+00
(PID.TID 0000.0001) %MON dynstat_vvel_mean            =   1.6290867406835E-03
(PID.TID 0000.0001) %MON dynstat_vvel_sd              =   3.6078538117373E-02
(PID.TID 0000.0001) %MON dynstat_vvel_del2            =   7.7118749698981E-05
(PID.TID 0000.0001) %MON dynstat_wvel_max             =   1.2529911816515E-02
(PID.TID 0000.0001) %MON dynstat_wvel_min             =  -1.1346878622422E-02
(PID.TID 0000.0001) %MON dynstat_wvel_mean            =  -1.1103847879464E-21
(PID.TID 0000.0001) %MON dynstat_wvel_sd              =   4.7975931898370E-04
(PID.TID 0000.0001) %MON dynstat_wvel_del2            =   1.0631019592204E-06
(PID.TID 0000.0001) %MON dynstat_theta_max            =   3.2613041020391E+01
(PID.TID 0000.0001) %MON dynstat_theta_min            =  -2.5136829421821E+00
(PID.TID 0000.0001) %MON dynstat_theta_mean           =   3.5902336366407E+00
(PID.TID 0000.0001) %MON dynstat_theta_sd             =   4.4233134903197E+00
(PID.TID 0000.0001) %MON dynstat_theta_del2           =   2.3057433985455E-04
(PID.TID 0000.0001) %MON dynstat_salt_max             =   4.0711490302197E+01
(PID.TID 0000.0001) %MON dynstat_salt_min             =   1.8846023345935E+01
(PID.TID 0000.0001) %MON dynstat_salt_mean            =   3.4725450547216E+01
(PID.TID 0000.0001) %MON dynstat_salt_sd              =   3.6773141861449E-01
(PID.TID 0000.0001) %MON dynstat_salt_del2            =   9.6767365136306E-05
(PID.TID 0000.0001) %MON dynstat_sst_max              =   3.2586260494586E+01
(PID.TID 0000.0001) %MON dynstat_sst_min              =  -2.5136829421821E+00
(PID.TID 0000.0001) %MON dynstat_sst_mean             =   1.8255031476866E+01
(PID.TID 0000.0001) %MON dynstat_sst_sd               =   1.0221050620699E+01
(PID.TID 0000.0001) %MON dynstat_sst_del2             =   2.0506133026189E-03
(PID.TID 0000.0001) %MON dynstat_sss_max              =   3.9256721312479E+01
(PID.TID 0000.0001) %MON dynstat_sss_min              =   1.8846023345935E+01
(PID.TID 0000.0001) %MON dynstat_sss_mean             =   3.4778842722457E+01
(PID.TID 0000.0001) %MON dynstat_sss_sd               =   9.8078656144454E-01
(PID.TID 0000.0001) %MON dynstat_sss_del2             =   1.6323974694692E-03
(PID.TID 0000.0001) %MON forcing_qnet_max             =   1.7447774658203E+03
(PID.TID 0000.0001) %MON forcing_qnet_min             =  -6.4829072805088E+03
(PID.TID 0000.0001) %MON forcing_qnet_mean            =  -5.2139512644020E+00
(PID.TID 0000.0001) %MON forcing_qnet_sd              =   1.9805661382537E+02
(PID.TID 0000.0001) %MON forcing_qnet_del2            =   6.1115273757818E-01
(PID.TID 0000.0001) %MON forcing_qsw_max              =   0.0000000000000E+00
(PID.TID 0000.0001) %MON forcing_qsw_min              =  -9.5553816352657E+01
(PID.TID 0000.0001) %MON forcing_qsw_mean             =  -1.6225160277388E+01
(PID.TID 0000.0001) %MON forcing_qsw_sd               =   2.4885829385912E+01
(PID.TID 0000.0001) %MON forcing_qsw_del2             =   3.9095350887817E-02
(PID.TID 0000.0001) %MON forcing_empmr_max            =   9.6506448462605E-03
(PID.TID 0000.0001) %MON forcing_empmr_min            =  -9.2444702982903E-02
(PID.TID 0000.0001) %MON forcing_empmr_mean           =  -9.2526837874773E-06
(PID.TID 0000.0001) %MON forcing_empmr_sd             =   3.7713982622331E-04
(PID.TID 0000.0001) %MON forcing_empmr_del2           =   2.4728032987071E-06
(PID.TID 0000.0001) %MON forcing_fu_max               =   9.5638409256935E-01
(PID.TID 0000.0001) %MON forcing_fu_min               =  -6.7271582657050E-01
(PID.TID 0000.0001) %MON forcing_fu_mean              =   9.8172487065870E-03
(PID.TID 0000.0001) %MON forcing_fu_sd                =   9.9726032963822E-02
(PID.TID 0000.0001) %MON forcing_fu_del2              =   1.3808782709512E-04
(PID.TID 0000.0001) %MON forcing_fv_max               =   9.0259784460068E-01
(PID.TID 0000.0001) %MON forcing_fv_min               =  -7.9756482279418E-01
(PID.TID 0000.0001) %MON forcing_fv_mean              =  -1.0487366684119E-02
(PID.TID 0000.0001) %MON forcing_fv_sd                =   1.0069248797055E-01
(PID.TID 0000.0001) %MON forcing_fv_del2              =   1.1500560523868E-04
(PID.TID 0000.0001) %MON trAdv_CFL_u_max              =   2.5648826810118E-02
(PID.TID 0000.0001) %MON trAdv_CFL_v_max              =   2.6175938236461E-02
(PID.TID 0000.0001) %MON trAdv_CFL_w_max              =   1.7306837745456E-01
(PID.TID 0000.0001) %MON advcfl_uvel_max              =   2.5939461060526E-02
(PID.TID 0000.0001) %MON advcfl_vvel_max              =   2.6175320676404E-02
(PID.TID 0000.0001) %MON advcfl_wvel_max              =   1.7994717524623E-01
(PID.TID 0000.0001) %MON advcfl_W_hf_max              =   1.8794482747940E-01
(PID.TID 0000.0001) %MON pe_b_mean                    =   6.4078603408811E-04
(PID.TID 0000.0001) %MON ke_max                       =   1.3818071264522E+00
(PID.TID 0000.0001) %MON ke_mean                      =   1.2035237342401E-03
(PID.TID 0000.0001) %MON ke_vol                       =   1.3350064351420E+18
(PID.TID 0000.0001) %MON vort_r_min                   =  -4.6871318394256E-05
(PID.TID 0000.0001) %MON vort_r_max                   =   4.7721787010686E-05
(PID.TID 0000.0001) %MON vort_a_mean                  =  -1.9725213241026E-05
(PID.TID 0000.0001) %MON vort_a_sd                    =   7.4541846112944E-05
(PID.TID 0000.0001) %MON vort_p_mean                  =  -2.1669263470803E-05
(PID.TID 0000.0001) %MON vort_p_sd                    =   9.3622701459670E-05
(PID.TID 0000.0001) %MON surfExpan_theta_mean         =  -7.8206539664877E-06
(PID.TID 0000.0001) %MON surfExpan_salt_mean          =  -2.5577609625251E-07
(PID.TID 0000.0001) // =======================================================
(PID.TID 0000.0001) // End MONITOR dynamic field statistics
(PID.TID 0000.0001) // =======================================================
 cg2d: Sum(rhs),rhsMax =   2.97112347485631E+01  2.96781425224284E+00
 cg2d: Sum(rhs),rhsMax =   2.95053300174084E+01  2.96414227690114E+00
 cg2d: Sum(rhs),rhsMax =   2.92601861058949E+01  2.96351928171666E+00
 cg2d: Sum(rhs),rhsMax =   2.89876806775874E+01  2.96584385278067E+00
 cg2d: Sum(rhs),rhsMax =   2.86922827102696E+01  2.97089564441160E+00
 cg2d: Sum(rhs),rhsMax =   2.83750679786199E+01  2.97834959253622E+00
 cg2d: Sum(rhs),rhsMax =   2.80446885572392E+01  2.98741931955326E+00
 cg2d: Sum(rhs),rhsMax =   2.77153413677834E+01  2.99722178205996E+00
(PID.TID 0000.0001)      cg2d_init_res =   7.30285221962325E-01
(PID.TID 0000.0001)      cg2d_iters(min,last) =      -1      23
(PID.TID 0000.0001)      cg2d_last_res =   7.21693826014206E-06
(PID.TID 0000.0001) // =======================================================
(PID.TID 0000.0001) // Begin MONITOR dynamic field statistics
(PID.TID 0000.0001) // =======================================================
(PID.TID 0000.0001) %MON time_tsnumber                =                    88
(PID.TID 0000.0001) %MON time_secondsf                =   7.9200000000000E+04
(PID.TID 0000.0001) %MON dynstat_eta_max              =   1.0903019180037E+00
(PID.TID 0000.0001) %MON dynstat_eta_min              =  -3.0817526297902E+00
(PID.TID 0000.0001) %MON dynstat_eta_mean             =  -9.4598588185257E-04
(PID.TID 0000.0001) %MON dynstat_eta_sd               =   6.9436538730467E-01
(PID.TID 0000.0001) %MON dynstat_eta_del2             =   1.6486856807273E-04
(PID.TID 0000.0001) %MON dynstat_uvel_max             =   1.6826577768960E+00
(PID.TID 0000.0001) %MON dynstat_uvel_min             =  -1.4825708553989E+00
(PID.TID 0000.0001) %MON dynstat_uvel_mean            =   8.3902177279616E-04
(PID.TID 0000.0001) %MON dynstat_uvel_sd              =   3.4269481334975E-02
(PID.TID 0000.0001) %MON dynstat_uvel_del2            =   7.1862290865332E-05
(PID.TID 0000.0001) %MON dynstat_vvel_max             =   1.4690072131033E+00
(PID.TID 0000.0001) %MON dynstat_vvel_min             =  -1.1587336793001E+00
(PID.TID 0000.0001) %MON dynstat_vvel_mean            =   1.5778937667063E-03
(PID.TID 0000.0001) %MON dynstat_vvel_sd              =   3.5617244490960E-02
(PID.TID 0000.0001) %MON dynstat_vvel_del2            =   7.4518896064882E-05
(PID.TID 0000.0001) %MON dynstat_wvel_max             =   9.6142248588430E-03
(PID.TID 0000.0001) %MON dynstat_wvel_min             =  -9.9071104731633E-03
(PID.TID 0000.0001) %MON dynstat_wvel_mean            =  -5.2049286934988E-22
(PID.TID 0000.0001) %MON dynstat_wvel_sd              =   4.4081367351586E-04
(PID.TID 0000.0001) %MON dynstat_wvel_del2            =   9.8135846869072E-07
(PID.TID 0000.0001) %MON dynstat_theta_max            =   3.2589623179271E+01
(PID.TID 0000.0001) %MON dynstat_theta_min            =  -2.3829517681218E+00
(PID.TID 0000.0001) %MON dynstat_theta_mean           =   3.5902556650456E+00
(PID.TID 0000.0001) %MON dynstat_theta_sd             =   4.4233778829022E+00
(PID.TID 0000.0001) %MON dynstat_theta_del2           =   2.2876775098035E-04
(PID.TID 0000.0001) %MON dynstat_salt_max             =   4.0711487183803E+01
(PID.TID 0000.0001) %MON dynstat_salt_min             =   1.8598012063898E+01
(PID.TID 0000.0001) %MON dynstat_salt_mean            =   3.4725445746529E+01
(PID.TID 0000.0001) %MON dynstat_salt_sd              =   3.6771446624479E-01
(PID.TID 0000.0001) %MON dynstat_salt_del2            =   9.4987625924588E-05
(PID.TID 0000.0001) %MON dynstat_sst_max              =   3.2568029340355E+01
(PID.TID 0000.0001) %MON dynstat_sst_min              =  -2.3829517681218E+00
(PID.TID 0000.0001) %MON dynstat_sst_mean             =   1.8256821473726E+01
(PID.TID 0000.0001) %MON dynstat_sst_sd               =   1.0223097575368E+01
(PID.TID 0000.0001) %MON dynstat_sst_del2             =   2.0271706493822E-03
(PID.TID 0000.0001) %MON dynstat_sss_max              =   3.9219038304889E+01
(PID.TID 0000.0001) %MON dynstat_sss_min              =   1.8598012063898E+01
(PID.TID 0000.0001) %MON dynstat_sss_mean             =   3.4778700296493E+01
(PID.TID 0000.0001) %MON dynstat_sss_sd               =   9.8159068731921E-01
(PID.TID 0000.0001) %MON dynstat_sss_del2             =   1.6053475272048E-03
(PID.TID 0000.0001) %MON forcing_qnet_max             =   2.4946125488281E+03
(PID.TID 0000.0001) %MON forcing_qnet_min             =  -2.0053924560547E+03
(PID.TID 0000.0001) %MON forcing_qnet_mean            =  -1.2590520288259E+01
(PID.TID 0000.0001) %MON forcing_qnet_sd              =   1.8867639405882E+02
(PID.TID 0000.0001) %MON forcing_qnet_del2            =   5.6202189121974E-01
(PID.TID 0000.0001) %MON forcing_qsw_max              =   0.0000000000000E+00
(PID.TID 0000.0001) %MON forcing_qsw_min              =  -9.6124186896792E+01
(PID.TID 0000.0001) %MON forcing_qsw_mean             =  -1.7439205616568E+01
(PID.TID 0000.0001) %MON forcing_qsw_sd               =   2.5382645603315E+01
(PID.TID 0000.0001) %MON forcing_qsw_del2             =   4.0095712782426E-02
(PID.TID 0000.0001) %MON forcing_empmr_max            =   4.4402400963008E-03
(PID.TID 0000.0001) %MON forcing_empmr_min            =  -9.6523590385914E-02
(PID.TID 0000.0001) %MON forcing_empmr_mean           =  -9.1061978066436E-06
(PID.TID 0000.0001) %MON forcing_empmr_sd             =   3.8678320790283E-04
(PID.TID 0000.0001) %MON forcing_empmr_del2           =   2.4115059736916E-06
(PID.TID 0000.0001) %MON forcing_fu_max               =   8.7724515795708E-01
(PID.TID 0000.0001) %MON forcing_fu_min               =  -6.9018741980820E-01
(PID.TID 0000.0001) %MON forcing_fu_mean              =   9.5864857014982E-03
(PID.TID 0000.0001) %MON forcing_fu_sd                =   9.8231985319349E-02
(PID.TID 0000.0001) %MON forcing_fu_del2              =   1.3514959256354E-04
(PID.TID 0000.0001) %MON forcing_fv_max               =   9.4427123665810E-01
(PID.TID 0000.0001) %MON forcing_fv_min               =  -8.1119075357207E-01
(PID.TID 0000.0001) %MON forcing_fv_mean              =  -1.0807535805511E-02
(PID.TID 0000.0001) %MON forcing_fv_sd                =   1.0014854305371E-01
(PID.TID 0000.0001) %MON forcing_fv_del2              =   1.1357196301146E-04
(PID.TID 0000.0001) %MON trAdv_CFL_u_max              =   2.4457230134225E-02
(PID.TID 0000.0001) %MON trAdv_CFL_v_max              =   2.6076821486120E-02
(PID.TID 0000.0001) %MON trAdv_CFL_w_max              =   1.6078966799506E-01
(PID.TID 0000.0001) %MON advcfl_uvel_max              =   2.4120486053233E-02
(PID.TID 0000.0001) %MON advcfl_vvel_max              =   2.6076206264491E-02
(PID.TID 0000.0001) %MON advcfl_wvel_max              =   1.6735299940287E-01
(PID.TID 0000.0001) %MON advcfl_W_hf_max              =   1.7479091048744E-01
(PID.TID 0000.0001) %MON pe_b_mean                    =   6.3420903998355E-04
(PID.TID 0000.0001) %MON ke_max                       =   1.3536307958092E+00
(PID.TID 0000.0001) %MON ke_mean                      =   1.1795327823762E-03
(PID.TID 0000.0001) %MON ke_vol                       =   1.3350064351420E+18
(PID.TID 0000.0001) %MON vort_r_min                   =  -4.8593510842357E-05
(PID.TID 0000.0001) %MON vort_r_max                   =   4.7570071820981E-05
(PID.TID 0000.0001) %MON vort_a_mean                  =  -1.9725213241026E-05
(PID.TID 0000.0001) %MON vort_a_sd                    =   7.4541633966976E-05
(PID.TID 0000.0001) %MON vort_p_mean                  =  -2.1669263470803E-05
(PID.TID 0000.0001) %MON vort_p_sd                    =   9.3622879123733E-05
(PID.TID 0000.0001) %MON surfExpan_theta_mean         =  -1.0037320712992E-05
(PID.TID 0000.0001) %MON surfExpan_salt_mean          =  -3.1828657236351E-08
(PID.TID 0000.0001) // =======================================================
(PID.TID 0000.0001) // End MONITOR dynamic field statistics
(PID.TID 0000.0001) // =======================================================
 cg2d: Sum(rhs),rhsMax =   2.73943009010018E+01  3.00684027456375E+00
 cg2d: Sum(rhs),rhsMax =   2.70790822970439E+01  3.01547132835301E+00
 cg2d: Sum(rhs),rhsMax =   2.67849149318351E+01  3.02260317705474E+00
 cg2d: Sum(rhs),rhsMax =   2.65096329944324E+01  3.02814019148179E+00
 cg2d: Sum(rhs),rhsMax =   2.62410489397328E+01  3.03224021595338E+00
 cg2d: Sum(rhs),rhsMax =   2.59839356223952E+01  3.03539254642114E+00
 cg2d: Sum(rhs),rhsMax =   2.57337280185268E+01  3.03816398492309E+00
 cg2d: Sum(rhs),rhsMax =   2.54837898987628E+01  3.04097316950410E+00
(PID.TID 0000.0001)      cg2d_init_res =   6.67248611818239E-01
(PID.TID 0000.0001)      cg2d_iters(min,last) =      -1      23
(PID.TID 0000.0001)      cg2d_last_res =   6.15338244210897E-06
(PID.TID 0000.0001) // =======================================================
(PID.TID 0000.0001) // Begin MONITOR dynamic field statistics
(PID.TID 0000.0001) // =======================================================
(PID.TID 0000.0001) %MON time_tsnumber                =                    96
(PID.TID 0000.0001) %MON time_secondsf                =   8.6400000000000E+04
(PID.TID 0000.0001) %MON dynstat_eta_max              =   1.1126690536561E+00
(PID.TID 0000.0001) %MON dynstat_eta_min              =  -3.0570748724203E+00
(PID.TID 0000.0001) %MON dynstat_eta_mean             =  -8.8251510392591E-04
(PID.TID 0000.0001) %MON dynstat_eta_sd               =   6.8914839910933E-01
(PID.TID 0000.0001) %MON dynstat_eta_del2             =   1.6072777538234E-04
(PID.TID 0000.0001) %MON dynstat_uvel_max             =   1.5749880931473E+00
(PID.TID 0000.0001) %MON dynstat_uvel_min             =  -1.5174997020309E+00
(PID.TID 0000.0001) %MON dynstat_uvel_mean            =   8.0782254027326E-04
(PID.TID 0000.0001) %MON dynstat_uvel_sd              =   3.4487548805049E-02
(PID.TID 0000.0001) %MON dynstat_uvel_del2            =   6.9136671432367E-05
(PID.TID 0000.0001) %MON dynstat_vvel_max             =   1.4620221006652E+00
(PID.TID 0000.0001) %MON dynstat_vvel_min             =  -1.1267961390543E+00
(PID.TID 0000.0001) %MON dynstat_vvel_mean            =   1.5466317609264E-03
(PID.TID 0000.0001) %MON dynstat_vvel_sd              =   3.6027615940920E-02
(PID.TID 0000.0001) %MON dynstat_vvel_del2            =   7.1898323785672E-05
(PID.TID 0000.0001) %MON dynstat_wvel_max             =   9.2632936537458E-03
(PID.TID 0000.0001) %MON dynstat_wvel_min             =  -1.0608030639345E-02
(PID.TID 0000.0001) %MON dynstat_wvel_mean            =  -4.8926329718888E-21
(PID.TID 0000.0001) %MON dynstat_wvel_sd              =   4.1562366531752E-04
(PID.TID 0000.0001) %MON dynstat_wvel_del2            =   9.0728138143366E-07
(PID.TID 0000.0001) %MON dynstat_theta_max            =   3.2567836347083E+01
(PID.TID 0000.0001) %MON dynstat_theta_min            =  -2.3587581428920E+00
(PID.TID 0000.0001) %MON dynstat_theta_mean           =   3.5902827871921E+00
(PID.TID 0000.0001) %MON dynstat_theta_sd             =   4.4234623536516E+00
(PID.TID 0000.0001) %MON dynstat_theta_del2           =   2.2772400762707E-04
(PID.TID 0000.0001) %MON dynstat_salt_max             =   4.0711484459497E+01
(PID.TID 0000.0001) %MON dynstat_salt_min             =   1.7626118480978E+01
(PID.TID 0000.0001) %MON dynstat_salt_mean            =   3.4725441247876E+01
(PID.TID 0000.0001) %MON dynstat_salt_sd              =   3.6769783505253E-01
(PID.TID 0000.0001) %MON dynstat_salt_del2            =   9.3366581695411E-05
(PID.TID 0000.0001) %MON dynstat_sst_max              =   3.2548011793758E+01
(PID.TID 0000.0001) %MON dynstat_sst_min              =  -2.3587581428920E+00
(PID.TID 0000.0001) %MON dynstat_sst_mean             =   1.8258705576893E+01
(PID.TID 0000.0001) %MON dynstat_sst_sd               =   1.0224924672866E+01
(PID.TID 0000.0001) %MON dynstat_sst_del2             =   2.0071860447141E-03
(PID.TID 0000.0001) %MON dynstat_sss_max              =   3.9182565453775E+01
(PID.TID 0000.0001) %MON dynstat_sss_min              =   1.7626118480978E+01
(PID.TID 0000.0001) %MON dynstat_sss_mean             =   3.4778797101739E+01
(PID.TID 0000.0001) %MON dynstat_sss_sd               =   9.8272481470217E-01
(PID.TID 0000.0001) %MON dynstat_sss_del2             =   1.5802926652955E-03
(PID.TID 0000.0001) %MON forcing_qnet_max             =   3.0131478801157E+03
(PID.TID 0000.0001) %MON forcing_qnet_min             =  -2.4730898437500E+03
(PID.TID 0000.0001) %MON forcing_qnet_mean            =  -2.3511532061794E+01
(PID.TID 0000.0001) %MON forcing_qnet_sd              =   2.0228958880654E+02
(PID.TID 0000.0001) %MON forcing_qnet_del2            =   5.2045884233590E-01
(PID.TID 0000.0001) %MON forcing_qsw_max              =   0.0000000000000E+00
(PID.TID 0000.0001) %MON forcing_qsw_min              =  -9.3854768896033E+01
(PID.TID 0000.0001) %MON forcing_qsw_mean             =  -1.8922997555297E+01
(PID.TID 0000.0001) %MON forcing_qsw_sd               =   2.6428039519323E+01
(PID.TID 0000.0001) %MON forcing_qsw_del2             =   4.2894675862473E-02
(PID.TID 0000.0001) %MON forcing_empmr_max            =   4.6218535862863E-03
(PID.TID 0000.0001) %MON forcing_empmr_min            =  -8.7728478014469E-02
(PID.TID 0000.0001) %MON forcing_empmr_mean           =  -8.9250593675498E-06
(PID.TID 0000.0001) %MON forcing_empmr_sd             =   3.5753050376539E-04
(PID.TID 0000.0001) %MON forcing_empmr_del2           =   2.2044049250495E-06
(PID.TID 0000.0001) %MON forcing_fu_max               =   8.7654125690460E-01
(PID.TID 0000.0001) %MON forcing_fu_min               =  -7.1239132509098E-01
(PID.TID 0000.0001) %MON forcing_fu_mean              =   9.2125584919586E-03
(PID.TID 0000.0001) %MON forcing_fu_sd                =   9.7614054324164E-02
(PID.TID 0000.0001) %MON forcing_fu_del2              =   1.3348258979628E-04
(PID.TID 0000.0001) %MON forcing_fv_max               =   9.4423586130142E-01
(PID.TID 0000.0001) %MON forcing_fv_min               =  -8.0643679039849E-01
(PID.TID 0000.0001) %MON forcing_fv_mean              =  -1.0943702376390E-02
(PID.TID 0000.0001) %MON forcing_fv_sd                =   9.9257552301839E-02
(PID.TID 0000.0001) %MON forcing_fv_del2              =   1.1398550653156E-04
(PID.TID 0000.0001) %MON trAdv_CFL_u_max              =   2.5378364480607E-02
(PID.TID 0000.0001) %MON trAdv_CFL_v_max              =   2.5952826499243E-02
(PID.TID 0000.0001) %MON trAdv_CFL_w_max              =   1.4255003552944E-01
(PID.TID 0000.0001) %MON advcfl_uvel_max              =   2.5106904279786E-02
(PID.TID 0000.0001) %MON advcfl_vvel_max              =   2.5952214202986E-02
(PID.TID 0000.0001) %MON advcfl_wvel_max              =   1.4803418427128E-01
(PID.TID 0000.0001) %MON advcfl_W_hf_max              =   1.5490391814671E-01
(PID.TID 0000.0001) %MON pe_b_mean                    =   6.2471467719966E-04
(PID.TID 0000.0001) %MON ke_max                       =   1.3453766465540E+00
(PID.TID 0000.0001) %MON ke_mean                      =   1.2008685606715E-03
(PID.TID 0000.0001) %MON ke_vol                       =   1.3350064351420E+18
(PID.TID 0000.0001) %MON vort_r_min                   =  -5.0478468335557E-05
(PID.TID 0000.0001) %MON vort_r_max                   =   4.8876452833866E-05
(PID.TID 0000.0001) %MON vort_a_mean                  =  -1.9725213241026E-05
(PID.TID 0000.0001) %MON vort_a_sd                    =   7.4541498469347E-05
(PID.TID 0000.0001) %MON vort_p_mean                  =  -2.1669263470803E-05
(PID.TID 0000.0001) %MON vort_p_sd                    =   9.3623261177356E-05
(PID.TID 0000.0001) %MON surfExpan_theta_mean         =  -8.6338428775636E-06
(PID.TID 0000.0001) %MON surfExpan_salt_mean          =  -1.0581238465583E-07
(PID.TID 0000.0001) // =======================================================
(PID.TID 0000.0001) // End MONITOR dynamic field statistics
(PID.TID 0000.0001) // =======================================================
(PID.TID 0000.0001) %CHECKPOINT        96 ckptA
 cg2d: Sum(rhs),rhsMax =   2.52335130774993E+01  3.04406323400273E+00
(PID.TID 0000.0001) %CHECKPOINT        97 ckptB
