(PID.TID 0000.0001) 
(PID.TID 0000.0001) // ======================================================
(PID.TID 0000.0001) //                      MITgcm UV
(PID.TID 0000.0001) //                      =========
(PID.TID 0000.0001) // ======================================================
(PID.TID 0000.0001) // execution environment starting up...
(PID.TID 0000.0001) 
(PID.TID 0000.0001) // MITgcmUV version:  checkpoint67b
(PID.TID 0000.0001) // Build user:        estrobac
(PID.TID 0000.0001) // Build host:        borgo025
(PID.TID 0000.0001) // Build date:        Wed Jun 20 18:54:08 EDT 2018
(PID.TID 0000.0001) 
(PID.TID 0000.0001) // =======================================================
(PID.TID 0000.0001) // Execution Environment parameter file "eedata"
(PID.TID 0000.0001) // =======================================================
(PID.TID 0000.0001) ># Example "eedata" file
(PID.TID 0000.0001) ># Lines beginning "#" are comments
(PID.TID 0000.0001) ># nTx - No. threads per process in X
(PID.TID 0000.0001) ># nTy - No. threads per process in Y
(PID.TID 0000.0001) > &EEPARMS
(PID.TID 0000.0001) > useCubedSphereExchange=.TRUE.,
(PID.TID 0000.0001) > nTx=1,
(PID.TID 0000.0001) > nTy=1,
(PID.TID 0000.0001) > &
(PID.TID 0000.0001) 
(PID.TID 0000.0001) // =======================================================
(PID.TID 0000.0001) // Computational Grid Specification ( see files "SIZE.h" )
(PID.TID 0000.0001) //                                  ( and "eedata"       )
(PID.TID 0000.0001) // =======================================================
(PID.TID 0000.0001)      nPx =   96 ; /* No. processes in X */
(PID.TID 0000.0001)      nPy =    1 ; /* No. processes in Y */
(PID.TID 0000.0001)      nSx =    1 ; /* No. tiles in X per process */
(PID.TID 0000.0001)      nSy =    1 ; /* No. tiles in Y per process */
(PID.TID 0000.0001)      sNx =   30 ; /* Tile size in X */
(PID.TID 0000.0001)      sNy =   30 ; /* Tile size in Y */
(PID.TID 0000.0001)      OLx =    4 ; /* Tile overlap distance in X */
(PID.TID 0000.0001)      OLy =    4 ; /* Tile overlap distance in Y */
(PID.TID 0000.0001)      nTx =    1 ; /* No. threads in X per process */
(PID.TID 0000.0001)      nTy =    1 ; /* No. threads in Y per process */
(PID.TID 0000.0001)       Nr =   50 ; /* No. levels in the vertical   */
(PID.TID 0000.0001)       Nx = 2880 ; /* Total domain size in X ( = nPx*nSx*sNx ) */
(PID.TID 0000.0001)       Ny =   30 ; /* Total domain size in Y ( = nPy*nSy*sNy ) */
(PID.TID 0000.0001)   nTiles =    1 ; /* Total no. tiles per process ( = nSx*nSy ) */
(PID.TID 0000.0001)   nProcs =   96 ; /* Total no. processes ( = nPx*nPy ) */
(PID.TID 0000.0001) nThreads =    1 ; /* Total no. threads per process ( = nTx*nTy ) */
(PID.TID 0000.0001) usingMPI =    T ; /* Flag used to control whether MPI is in use */
(PID.TID 0000.0001)                   /*  note: To execute a program with MPI calls */
(PID.TID 0000.0001)                   /*  it must be launched appropriately e.g     */
(PID.TID 0000.0001)                   /*  "mpirun -np 64 ......"                    */
(PID.TID 0000.0001) useCoupler=    F ;/* Flag used to control communications with   */
(PID.TID 0000.0001)                   /*  other model components, through a coupler */
(PID.TID 0000.0001) debugMode =    F ; /* print debug msg. (sequence of S/R calls)  */
(PID.TID 0000.0001) printMapIncludesZeros=    F ; /* print zeros in Std.Output maps */
(PID.TID 0000.0001) maxLengthPrt1D=   65 /* maxLength of 1D array printed to StdOut */
(PID.TID 0000.0001) 
(PID.TID 0000.0001) ======= Starting MPI parallel Run =========
(PID.TID 0000.0001)  My Processor Name (len: 10 ) = borg01y137
(PID.TID 0000.0001)  Located at (  0,  0) on processor grid (0: 95,0:  0)
(PID.TID 0000.0001)  Origin at  (     1,     1) on global grid (1:  2880,1:    30)
(PID.TID 0000.0001)  North neighbor = processor 0000
(PID.TID 0000.0001)  South neighbor = processor 0000
(PID.TID 0000.0001)   East neighbor = processor 0001
(PID.TID 0000.0001)   West neighbor = processor 0095
(PID.TID 0000.0001) // ======================================================
(PID.TID 0000.0001) // Mapping of tiles to threads
(PID.TID 0000.0001) // ======================================================
(PID.TID 0000.0001) // -o- Thread   1, tiles (   1:   1,   1:   1)
(PID.TID 0000.0001) 
(PID.TID 0000.0001) W2_READPARMS: opening data.exch2
(PID.TID 0000.0001)  OPEN_COPY_DATA_FILE: opening file data.exch2
(PID.TID 0000.0001) // =======================================================
(PID.TID 0000.0001) // Parameter file "data.exch2"
(PID.TID 0000.0001) // =======================================================
(PID.TID 0000.0001) ># EXCH2 Package: Wrapper-2 User Choice
(PID.TID 0000.0001) >#--------------------
(PID.TID 0000.0001) >#  preDefTopol   :: pre-defined Topology selector:
(PID.TID 0000.0001) >#                :: = 0 : topology defined from processing "data.exch2";
(PID.TID 0000.0001) >#                :: = 1 : simple, single facet topology;
(PID.TID 0000.0001) >#                :: = 2 : customized topology (w2_set_myown_facets)
(PID.TID 0000.0001) >#                :: = 3 : 6-facet Cube (3 face-dims: nRed, nGreen, nBlue).
(PID.TID 0000.0001) >#  dimsFacets    :: facet pair of dimensions (n1x,n1y, n2x,n2y ...)
(PID.TID 0000.0001) >#  facetEdgeLink :: Face-Edge connectivity map:
(PID.TID 0000.0001) >#    facetEdgeLink(i,j)=XX.1 : face(j)-edge(i) (i=1,2,3,4 <==> N,S,E,W)
(PID.TID 0000.0001) >#    is connected to Northern edge of face "XX" ; similarly,
(PID.TID 0000.0001) >#    = XX.2 : to Southern.E, XX.3 = Eastern.E, XX.4 = Western.E of face "XX"
(PID.TID 0000.0001) >#  blankList     :: List of "blank" tiles
(PID.TID 0000.0001) >#  W2_mapIO      :: global map IO selector (-1 = old type ; 0 = 1 long line in X
(PID.TID 0000.0001) >#                :: 1 = compact, mostly in Y dir)
(PID.TID 0000.0001) >#  W2_printMsg   :: option for information messages printing
(PID.TID 0000.0001) >#                :: <0 : write to log file ; =0 : minimum print ;
(PID.TID 0000.0001) >#                :: =1 : no duplicated print ; =2 : all processes do print
(PID.TID 0000.0001) >#--------------------
(PID.TID 0000.0001) > &W2_EXCH2_PARM01
(PID.TID 0000.0001) ># W2_printMsg= 0,
(PID.TID 0000.0001) >  W2_mapIO   = 1,
(PID.TID 0000.0001) >#
(PID.TID 0000.0001) >  preDefTopol=0,
(PID.TID 0000.0001) >#-- 5 facets llc_120 topology (drop facet 6 and its connection):
(PID.TID 0000.0001) >  dimsFacets(1:10) = 90, 270, 90, 270, 90, 90, 270, 90, 270, 90,
(PID.TID 0000.0001) >  facetEdgeLink(1:4,1)= 3.4, 0. , 2.4, 5.1,
(PID.TID 0000.0001) >  facetEdgeLink(1:4,2)= 3.2, 0. , 4.2, 1.3,
(PID.TID 0000.0001) >  facetEdgeLink(1:4,3)= 5.4, 2.1, 4.4, 1.1,
(PID.TID 0000.0001) >  facetEdgeLink(1:4,4)= 5.2, 2.3, 0. , 3.3,
(PID.TID 0000.0001) >  facetEdgeLink(1:4,5)= 1.4, 4.1, 0. , 3.1,
(PID.TID 0000.0001) >#-- full 6 facets llc_120 topology (equivalent to default preDefTopol=3):
(PID.TID 0000.0001) ># dimsFacets(1:12) = 120, 360, 120, 360, 120, 120, 360, 120, 360, 120, 120, 120,
(PID.TID 0000.0001) ># facetEdgeLink(1:4,1)= 3.4, 6.1, 2.4, 5.1,
(PID.TID 0000.0001) ># facetEdgeLink(1:4,2)= 3.2, 6.3, 4.2, 1.3,
(PID.TID 0000.0001) ># facetEdgeLink(1:4,3)= 5.4, 2.1, 4.4, 1.1,
(PID.TID 0000.0001) ># facetEdgeLink(1:4,4)= 5.2, 2.3, 6.2, 3.3,
(PID.TID 0000.0001) ># facetEdgeLink(1:4,5)= 1.4, 4.1, 6.4, 3.1,
(PID.TID 0000.0001) ># facetEdgeLink(1:4,6)= 1.2, 4.3, 2.2, 5.3,
(PID.TID 0000.0001) >#
(PID.TID 0000.0001) >#90x30   nprocs = 36
(PID.TID 0000.0001) ># blankList(1:3)=1,10,11,
(PID.TID 0000.0001) >#30x90
(PID.TID 0000.0001) >#
(PID.TID 0000.0001) >#45x30   nprocs = 72
(PID.TID 0000.0001) ># blankList(1:6)=1,2,19,20,21,22
(PID.TID 0000.0001) >#30x45   nprocs = 68
(PID.TID 0000.0001) ># blankList(1:10)=2,3,19,20,21,35,51,60,69,78
(PID.TID 0000.0001) >#45x45   nprocs = 48
(PID.TID 0000.0001) ># blankList(1:4)=2,13,14,23
(PID.TID 0000.0001) >#30x30   nprocs = 96
(PID.TID 0000.0001) >  blankList(1:21)=1,2,3,5,6,28,29,30,31,32,33,49,50,52,53,72,81,90,99,108,117
(PID.TID 0000.0001) >#30x30   nprocs = 112
(PID.TID 0000.0001) ># blankList(1:5)=2,3,28,29,30
(PID.TID 0000.0001) >#15x30   nprocs = 192
(PID.TID 0000.0001) ># blankList(1:42)=1,2,3,4,5,6,9,10,11,12,55,56,57,58,59,60,61,62,63,64,65,66,
(PID.TID 0000.0001) >#            97,98,99,100,103,104,105,106,143,144,
(PID.TID 0000.0001) >#            161,162,179,180,197,198,215,216,233,234
(PID.TID 0000.0001) >#15x15   nprocs = 360
(PID.TID 0000.0001) ># blankList(1:108)=1,2,3,4,5,6,7,8,9,10,11,12,14,15,16,17,18,21,22,23,24,
(PID.TID 0000.0001) >#  65,71,75,76,90,95,96,101,102,109,110,111,112,113,114,115,116,117,118,119,
(PID.TID 0000.0001) >#  120,121,122,123,124,125,126,127,128,129,130,131,132,
(PID.TID 0000.0001) >#  188,189,190,193,194,195,196,199,
(PID.TID 0000.0001) >#  200,201,202,203,205,206,207,208,209,211,212,213,214,215,216,242,247,253,
(PID.TID 0000.0001) >#  267,268,269,270,287,288,305,306,323,324,341,342,359,360,362,376,377,378,
(PID.TID 0000.0001) >#  380,381,382,395,396,400,412,413,414,430,
(PID.TID 0000.0001) >#note: it seems that 8 of the followig 9 tiles could be added to 15x15 blank
(PID.TID 0000.0001) >#  list to reach 352=22*16 cores : 431 432 440 441 448 449 450 467 468
(PID.TID 0000.0001) > &
(PID.TID 0000.0001) 
(PID.TID 0000.0001) W2_READPARMS: finished reading data.exch2
(PID.TID 0000.0001) W2_useE2ioLayOut=    T ;/* T: use Exch2 glob IO map; F: use model default */
(PID.TID 0000.0001) W2_mapIO        =   1 ; /* select option for Exch2 global-IO map */
(PID.TID 0000.0001) W2_printMsg     =  -1 ; /* select option for printing information */
(PID.TID 0000.0001) ===== Start setting W2 TOPOLOGY:
(PID.TID 0000.0001)  write to log-file: w2_tile_topology.0000.log
(PID.TID 0000.0001) =====       setting W2 TOPOLOGY: Done
(PID.TID 0000.0001) 
(PID.TID 0000.0001)  INI_PARMS: opening model parameter file "data"
(PID.TID 0000.0001)  OPEN_COPY_DATA_FILE: opening file data
(PID.TID 0000.0001) // =======================================================
(PID.TID 0000.0001) // Parameter file "data"
(PID.TID 0000.0001) // =======================================================
(PID.TID 0000.0001) ># ====================
(PID.TID 0000.0001) ># | Model parameters |
(PID.TID 0000.0001) ># ====================
(PID.TID 0000.0001) >#
(PID.TID 0000.0001) ># Continuous equation parameters
(PID.TID 0000.0001) > &PARM01
(PID.TID 0000.0001) > tRef               = 3*23.,3*22.,21.,2*20.,19.,2*18.,17.,2*16.,15.,14.,13.,
(PID.TID 0000.0001) >                      12.,11.,2*9.,8.,7.,2*6.,2*5.,3*4.,3*3.,4*2.,12*1.,
(PID.TID 0000.0001) > sRef               = 50*34.5,
(PID.TID 0000.0001) > no_slip_sides  = .TRUE.,
(PID.TID 0000.0001) > no_slip_bottom = .TRUE.,
(PID.TID 0000.0001) >#
(PID.TID 0000.0001) > viscAr=0.5E-4,
(PID.TID 0000.0001) >#
(PID.TID 0000.0001) > viscAh=1.E0,
(PID.TID 0000.0001) > viscAhGrid=2.E-2,
(PID.TID 0000.0001) ># viscAh=2.0e4,
(PID.TID 0000.0001) >#
(PID.TID 0000.0001) > diffKhT=1.E1,
(PID.TID 0000.0001) > diffKrT=1.E-5,
(PID.TID 0000.0001) > diffKhS=1.E1,
(PID.TID 0000.0001) > diffKrS=1.E-5,
(PID.TID 0000.0001) >#
(PID.TID 0000.0001) >### diffKrBL79surf=0.1E-4,
(PID.TID 0000.0001) >### diffKrBL79deep=1.0E-4,
(PID.TID 0000.0001) > bottomDragQuadratic = 0.001,
(PID.TID 0000.0001) >#when using ggl90
(PID.TID 0000.0001) > ivdc_kappa=10.,
(PID.TID 0000.0001) > implicitDiffusion=.TRUE.,
(PID.TID 0000.0001) > implicitViscosity=.TRUE.,
(PID.TID 0000.0001) > useRealFreshWaterFlux=.TRUE.,
(PID.TID 0000.0001) ># balanceThetaClimRelax=.TRUE.,
(PID.TID 0000.0001) > balanceSaltClimRelax=.TRUE.,
(PID.TID 0000.0001) ># balanceEmPmR=.TRUE.,
(PID.TID 0000.0001) ># balanceQnet=.TRUE.,
(PID.TID 0000.0001) > allowFreezing=.FALSE.,
(PID.TID 0000.0001) >### hFacInf=0.2,
(PID.TID 0000.0001) >### hFacSup=2.0,
(PID.TID 0000.0001) > hFacMin=.2,
(PID.TID 0000.0001) > hFacMinDr=5.,
(PID.TID 0000.0001) > select_rStar=2,
(PID.TID 0000.0001) > nonlinFreeSurf=4,
(PID.TID 0000.0001) > gravity=9.81,
(PID.TID 0000.0001) > rhonil=1029.,
(PID.TID 0000.0001) > rhoConst=1029.,
(PID.TID 0000.0001) > rhoConstFresh=1000.,
(PID.TID 0000.0001) > convertFW2Salt=-1.,
(PID.TID 0000.0001) > eosType='JMD95Z',
(PID.TID 0000.0001) > implicitFreeSurface=.TRUE.,
(PID.TID 0000.0001) > exactConserv=.TRUE.,
(PID.TID 0000.0001) > useSingleCpuIO=.TRUE.,
(PID.TID 0000.0001) > tempAdvScheme=30,
(PID.TID 0000.0001) > saltAdvScheme=30,
(PID.TID 0000.0001) > tempVertAdvScheme=3,
(PID.TID 0000.0001) > saltVertAdvScheme=3,
(PID.TID 0000.0001) > tempImplVertAdv=.TRUE.,
(PID.TID 0000.0001) > saltImplVertAdv=.TRUE.,
(PID.TID 0000.0001) > staggerTimeStep=.TRUE.,
(PID.TID 0000.0001) > vectorInvariantMomentum=.TRUE.,
(PID.TID 0000.0001) >#when using the cd scheme:
(PID.TID 0000.0001) ># useCDscheme=.TRUE.,
(PID.TID 0000.0001) > useJamartWetPoints=.TRUE.,
(PID.TID 0000.0001) > readBinaryPrec=32,
(PID.TID 0000.0001) > writeBinaryPrec=32,
(PID.TID 0000.0001) > debugLevel=2,
(PID.TID 0000.0001) > &
(PID.TID 0000.0001) >
(PID.TID 0000.0001) ># Elliptic solver parameters
(PID.TID 0000.0001) > &PARM02
(PID.TID 0000.0001) > cg2dMaxIters=300,
(PID.TID 0000.0001) > cg2dTargetResWunit=1.E-12,
(PID.TID 0000.0001) > &
(PID.TID 0000.0001) >
(PID.TID 0000.0001) ># Time stepping parameters
(PID.TID 0000.0001) > &PARM03
(PID.TID 0000.0001) > nIter0=1,
(PID.TID 0000.0001) >#2 lev2 for testing:
(PID.TID 0000.0001) ># nTimeSteps       = 1440,
(PID.TID 0000.0001) >#20y:
(PID.TID 0000.0001) >  nTimeSteps       = 1440,
(PID.TID 0000.0001) >#60 years
(PID.TID 0000.0001) ># nTimeSteps       = 1440,
(PID.TID 0000.0001) >#
(PID.TID 0000.0001) > forcing_In_AB=.FALSE.,
(PID.TID 0000.0001) > momDissip_In_AB=.FALSE.,
(PID.TID 0000.0001) >#when using the cd scheme:
(PID.TID 0000.0001) ># epsAB_CD = 0.25,
(PID.TID 0000.0001) ># tauCD=172800.0,
(PID.TID 0000.0001) > deltaT = 900.,
(PID.TID 0000.0001) >#when using ab2:
(PID.TID 0000.0001) > abEps = 0.1,
(PID.TID 0000.0001) >#when using ab3:
(PID.TID 0000.0001) ># doAB_onGtGs=.FALSE.,
(PID.TID 0000.0001) ># alph_AB=0.5,
(PID.TID 0000.0001) ># beta_AB=0.281105,
(PID.TID 0000.0001) >#
(PID.TID 0000.0001) >  pChkptFreq        = 1296000.0,
(PID.TID 0000.0001) >  chkptFreq        = 1296000.0,
(PID.TID 0000.0001) ># taveFreq    =31536000.0,
(PID.TID 0000.0001) ># dumpFreq    =31536000.0,
(PID.TID 0000.0001) > monitorFreq = 7200.0,
(PID.TID 0000.0001) > dumpInitAndLast = .TRUE.,
(PID.TID 0000.0001) > pickupStrictlyMatch=.FALSE.,
(PID.TID 0000.0001) > &
(PID.TID 0000.0001) >
(PID.TID 0000.0001) ># Gridding parameters
(PID.TID 0000.0001) > &PARM04
(PID.TID 0000.0001) > usingCurvilinearGrid=.TRUE.,
(PID.TID 0000.0001) > delR =
(PID.TID 0000.0001) >     10.00, 10.00, 10.00, 10.00, 10.00, 10.00, 10.00, 10.01,
(PID.TID 0000.0001) >     10.03, 10.11, 10.32, 10.80, 11.76, 13.42, 16.04, 19.82, 24.85,
(PID.TID 0000.0001) >     31.10, 38.42, 46.50, 55.00, 63.50, 71.58, 78.90, 85.15, 90.18,
(PID.TID 0000.0001) >     93.96, 96.58, 98.25, 99.25,100.01,101.33,104.56,111.33,122.83,
(PID.TID 0000.0001) >     139.09,158.94,180.83,203.55,226.50,249.50,272.50,295.50,318.50,
(PID.TID 0000.0001) >     341.50,364.50,387.50,410.50,433.50,456.50,
(PID.TID 0000.0001) > &
(PID.TID 0000.0001) >
(PID.TID 0000.0001) ># Input datasets
(PID.TID 0000.0001) > &PARM05
(PID.TID 0000.0001) >#adTapeDir='tapes',
(PID.TID 0000.0001) > bathyFile      ='bathy.bin',
(PID.TID 0000.0001) > hydrogThetaFile='T_OWPv1_M_eccollc_90x50.bin',
(PID.TID 0000.0001) > hydrogSaltFile ='S_OWPv1_M_eccollc_90x50.bin',
(PID.TID 0000.0001) > viscA4Dfile    ='viscA4Dfld.bin',
(PID.TID 0000.0001) > viscA4Zfile    ='viscA4Zfld.bin',
(PID.TID 0000.0001) > geothermalFile='geothermalFlux.bin',
(PID.TID 0000.0001) >#
(PID.TID 0000.0001) > &
(PID.TID 0000.0001) 
(PID.TID 0000.0001)  INI_PARMS ; starts to read PARM01
(PID.TID 0000.0001)  INI_PARMS ; read PARM01 : OK
(PID.TID 0000.0001)  INI_PARMS ; starts to read PARM02
(PID.TID 0000.0001)  INI_PARMS ; read PARM02 : OK
(PID.TID 0000.0001)  INI_PARMS ; starts to read PARM03
(PID.TID 0000.0001)  INI_PARMS ; read PARM03 : OK
(PID.TID 0000.0001)  INI_PARMS ; starts to read PARM04
(PID.TID 0000.0001)  INI_PARMS ; read PARM04 : OK
(PID.TID 0000.0001)  INI_PARMS ; starts to read PARM05
(PID.TID 0000.0001)  INI_PARMS ; read PARM05 : OK
(PID.TID 0000.0001)  INI_PARMS: finished reading file "data"
(PID.TID 0000.0001)  PACKAGES_BOOT: opening data.pkg
(PID.TID 0000.0001)  OPEN_COPY_DATA_FILE: opening file data.pkg
(PID.TID 0000.0001) // =======================================================
(PID.TID 0000.0001) // Parameter file "data.pkg"
(PID.TID 0000.0001) // =======================================================
(PID.TID 0000.0001) ># Packages
(PID.TID 0000.0001) > &PACKAGES
(PID.TID 0000.0001) > useGMRedi          = .TRUE.,
(PID.TID 0000.0001) > useGGL90           = .TRUE.,
(PID.TID 0000.0001) > useSALT_PLUME      = .FALSE.,
(PID.TID 0000.0001) > useDiagnostics     = .TRUE.,
(PID.TID 0000.0001) > useCTRL            = .TRUE.,
(PID.TID 0000.0001) > useSEAICE          = .TRUE.,
(PID.TID 0000.0001) > &
(PID.TID 0000.0001) 
(PID.TID 0000.0001)  PACKAGES_BOOT: finished reading data.pkg
(PID.TID 0000.0001)  PACKAGES_BOOT: On/Off package Summary
 --------  pkgs with a standard "usePKG" On/Off switch in "data.pkg":  --------
 pkg/ggl90                compiled   and   used ( useGGL90                 = T )
 pkg/gmredi               compiled   and   used ( useGMRedi                = T )
 pkg/ctrl                 compiled   and   used ( useCTRL                  = T )
 pkg/seaice               compiled   and   used ( useSEAICE                = T )
 pkg/salt_plume           compiled but not used ( useSALT_PLUME            = F )
 pkg/diagnostics          compiled   and   used ( useDiagnostics           = T )
 -------- pkgs without standard "usePKG" On/Off switch in "data.pkg":  --------
 pkg/generic_advdiff      compiled   and   used ( useGAD                   = T )
 pkg/mom_common           compiled   and   used ( momStepping              = T )
 pkg/mom_vecinv           compiled   and   used ( +vectorInvariantMomentum = T )
 pkg/mom_fluxform         compiled but not used ( & not vectorInvariantMom = F )
 pkg/monitor              compiled   and   used ( monitorFreq > 0.         = T )
 pkg/debug                compiled but not used ( debugMode                = F )
 pkg/exch2                compiled   and   used
 pkg/rw                   compiled   and   used
 pkg/mdsio                compiled   and   used
(PID.TID 0000.0001)  PACKAGES_BOOT: End of package Summary
(PID.TID 0000.0001) 
(PID.TID 0000.0001)  GGL90_READPARMS: opening data.ggl90
(PID.TID 0000.0001)  OPEN_COPY_DATA_FILE: opening file data.ggl90
(PID.TID 0000.0001) // =======================================================
(PID.TID 0000.0001) // Parameter file "data.ggl90"
(PID.TID 0000.0001) // =======================================================
(PID.TID 0000.0001) ># =====================================================================
(PID.TID 0000.0001) ># | Parameters for Gaspar et al. (1990)'s TKE vertical mixing scheme  |
(PID.TID 0000.0001) ># =====================================================================
(PID.TID 0000.0001) > &GGL90_PARM01
(PID.TID 0000.0001) ># GGL90taveFreq = 345600000.,
(PID.TID 0000.0001) ># GGL90dumpFreq = 86400.,
(PID.TID 0000.0001) ># GGL90writeState=.FALSE.,
(PID.TID 0000.0001) ># GGL90diffTKEh=3.e3,
(PID.TID 0000.0001) > GGL90alpha=30.,
(PID.TID 0000.0001) ># GGL90TKEFile = 'TKE_init.bin',
(PID.TID 0000.0001) > GGL90TKEmin  = 1.e-7,
(PID.TID 0000.0001) > GGL90TKEbottom = 1.e-6,
(PID.TID 0000.0001) > mxlMaxFlag =2,
(PID.TID 0000.0001) > mxlSurfFlag=.TRUE.,
(PID.TID 0000.0001) > &
(PID.TID 0000.0001) 
(PID.TID 0000.0001)  GGL90_READPARMS ; starts to read GGL90_PARM01
(PID.TID 0000.0001)  GGL90_READPARMS: read GGL90_PARM01 : OK
(PID.TID 0000.0001)  GGL90_READPARMS: finished reading data.ggl90
(PID.TID 0000.0001) // =======================================================
(PID.TID 0000.0001) // GGL90 configuration
(PID.TID 0000.0001) // =======================================================
(PID.TID 0000.0001) GGL90dumpFreq =   /* GGL90 state write out interval ( s ). */
(PID.TID 0000.0001)                 0.000000000000000E+00
(PID.TID 0000.0001)     ;
(PID.TID 0000.0001) GGL90taveFreq =   /* GGL90 averaging interval ( s ). */
(PID.TID 0000.0001)                 0.000000000000000E+00
(PID.TID 0000.0001)     ;
(PID.TID 0000.0001) GGL90mixingMAPS =   /* GGL90 IO flag. */
(PID.TID 0000.0001)                   F
(PID.TID 0000.0001)     ;
(PID.TID 0000.0001) GGL90writeState =   /* GGL90 IO flag. */
(PID.TID 0000.0001)                   F
(PID.TID 0000.0001)     ;
(PID.TID 0000.0001) GGL90ck =   /* GGL90 viscosity parameter. */
(PID.TID 0000.0001)                 1.000000000000000E-01
(PID.TID 0000.0001)     ;
(PID.TID 0000.0001) GGL90ceps =   /* GGL90 dissipation parameter. */
(PID.TID 0000.0001)                 7.000000000000000E-01
(PID.TID 0000.0001)     ;
(PID.TID 0000.0001) GGL90alpha =   /* GGL90 TKE diffusivity parameter. */
(PID.TID 0000.0001)                 3.000000000000000E+01
(PID.TID 0000.0001)     ;
(PID.TID 0000.0001) GGL90m2 =   /* GGL90 wind stress to vertical stress ratio. */
(PID.TID 0000.0001)                 3.750000000000000E+00
(PID.TID 0000.0001)     ;
(PID.TID 0000.0001) GGL90TKEmin =   /* GGL90 minimum kinetic energy ( m^2/s^2 ). */
(PID.TID 0000.0001)                 1.000000000000000E-07
(PID.TID 0000.0001)     ;
(PID.TID 0000.0001) GGL90TKEsurfMin =   /* GGL90 minimum surface kinetic energy ( m^2/s^2 ). */
(PID.TID 0000.0001)                 1.000000000000000E-04
(PID.TID 0000.0001)     ;
(PID.TID 0000.0001) GGL90TKEbottom =   /* GGL90 bottom kinetic energy ( m^2/s^2 ). */
(PID.TID 0000.0001)                 1.000000000000000E-06
(PID.TID 0000.0001)     ;
(PID.TID 0000.0001) GGL90viscMax =   /* GGL90 upper limit for viscosity ( m^2/s ). */
(PID.TID 0000.0001)                 1.000000000000000E+02
(PID.TID 0000.0001)     ;
(PID.TID 0000.0001) GGL90diffMax =   /* GGL90 upper limit for diffusivity ( m^2/s ). */
(PID.TID 0000.0001)                 1.000000000000000E+02
(PID.TID 0000.0001)     ;
(PID.TID 0000.0001) GGL90diffTKEh =   /* GGL90 horizontal diffusivity for TKE ( m^2/s ). */
(PID.TID 0000.0001)                 0.000000000000000E+00
(PID.TID 0000.0001)     ;
(PID.TID 0000.0001) GGL90mixingLengthMin =   /* GGL90 minimum mixing length ( m ). */
(PID.TID 0000.0001)                 1.000000000000000E-08
(PID.TID 0000.0001)     ;
(PID.TID 0000.0001) mxlMaxFlag =   /* Flag for limiting mixing-length method */
(PID.TID 0000.0001)                       2
(PID.TID 0000.0001)     ;
(PID.TID 0000.0001) mxlSurfFlag =   /* GGL90 flag for near surface mixing. */
(PID.TID 0000.0001)                   T
(PID.TID 0000.0001)     ;
(PID.TID 0000.0001) calcMeanVertShear = /* calc Mean of Vert.Shear (vs shear of Mean flow) */
(PID.TID 0000.0001)                   F
(PID.TID 0000.0001)     ;
(PID.TID 0000.0001) GGL90: GGL90TKEFile =
(PID.TID 0000.0001) GGL90writeState =   /* GGL90 Boundary condition flag. */
(PID.TID 0000.0001)                   T
(PID.TID 0000.0001)     ;
(PID.TID 0000.0001) // =======================================================
(PID.TID 0000.0001) // End of GGL90 config. summary
(PID.TID 0000.0001) // =======================================================
(PID.TID 0000.0001) 
(PID.TID 0000.0001)  GM_READPARMS: opening data.gmredi
(PID.TID 0000.0001)  OPEN_COPY_DATA_FILE: opening file data.gmredi
(PID.TID 0000.0001) // =======================================================
(PID.TID 0000.0001) // Parameter file "data.gmredi"
(PID.TID 0000.0001) // =======================================================
(PID.TID 0000.0001) ># GM+Redi package parameters:
(PID.TID 0000.0001) >#     GM_Small_Number  :: epsilon used in computing the slope
(PID.TID 0000.0001) >#     GM_slopeSqCutoff :: slope^2 cut-off value
(PID.TID 0000.0001) >
(PID.TID 0000.0001) >#-from MOM :
(PID.TID 0000.0001) ># GM_background_K: 	G & Mc.W  diffusion coefficient
(PID.TID 0000.0001) ># GM_maxSlope    :	max slope of isopycnals
(PID.TID 0000.0001) ># GM_Scrit       :	transition for scaling diffusion coefficient
(PID.TID 0000.0001) ># GM_Sd          :	half width scaling for diffusion coefficient
(PID.TID 0000.0001) ># GM_taper_scheme:	slope clipping or one of the tapering schemes
(PID.TID 0000.0001) ># GM_Kmin_horiz  :	horizontal diffusion minimum value
(PID.TID 0000.0001) >
(PID.TID 0000.0001) >#-Option parameters (needs to "define" options in GMREDI_OPTIONS.h")
(PID.TID 0000.0001) ># GM_isopycK     :	isopycnal diffusion coefficient (default=GM_background_K)
(PID.TID 0000.0001) ># GM_AdvForm     :	turn on GM Advective form       (default=Skew flux form)
(PID.TID 0000.0001) >
(PID.TID 0000.0001) > &GM_PARM01
(PID.TID 0000.0001) >  GM_Small_Number  = 1.D-20,
(PID.TID 0000.0001) >  GM_slopeSqCutoff = 1.D+08,
(PID.TID 0000.0001) >  GM_AdvForm         = .TRUE.,
(PID.TID 0000.0001) >  GM_isopycK         = 1.D+3,
(PID.TID 0000.0001) >  GM_background_K    = 1.D+3,
(PID.TID 0000.0001) >  GM_maxSlope        = 4.D-3,
(PID.TID 0000.0001) >  GM_taper_scheme    = 'stableGmAdjTap',
(PID.TID 0000.0001) >  GM_Kmin_horiz      = 100.,
(PID.TID 0000.0001) >  GM_Scrit           = 4.D-3,
(PID.TID 0000.0001) >  GM_Sd              = 1.D-3,
(PID.TID 0000.0001) >#
(PID.TID 0000.0001) >###  GM_Visbeck_alpha   = 1.5D-2,
(PID.TID 0000.0001) >###  GM_Visbeck_alpha   = 0.D0,
(PID.TID 0000.0001) >###  GM_Visbeck_length  = 2.D+5,
(PID.TID 0000.0001) >###  GM_Visbeck_depth   = 1.D+3,
(PID.TID 0000.0001) >###  GM_Visbeck_maxval_K= 2.5D+3,
(PID.TID 0000.0001) > &
(PID.TID 0000.0001) >
(PID.TID 0000.0001) >
(PID.TID 0000.0001) 
(PID.TID 0000.0001)  GM_READPARMS: finished reading data.gmredi
(PID.TID 0000.0001) 
(PID.TID 0000.0001)  SEAICE_READPARMS: opening data.seaice
(PID.TID 0000.0001)  OPEN_COPY_DATA_FILE: opening file data.seaice
(PID.TID 0000.0001) // =======================================================
(PID.TID 0000.0001) // Parameter file "data.seaice"
(PID.TID 0000.0001) // =======================================================
(PID.TID 0000.0001) ># SEAICE parameters
(PID.TID 0000.0001) > &SEAICE_PARM01
(PID.TID 0000.0001) > usePW79thermodynamics= .FALSE.,
(PID.TID 0000.0001) >  SEAICEuseDYNAMICS = .FALSE.,
(PID.TID 0000.0001) >  SEAICEupdateOceanStress=.FALSE.,
(PID.TID 0000.0001) >  SEAICEadvHeff  = .FALSE.,
(PID.TID 0000.0001) >  SEAICEadvArea  = .FALSE.,
(PID.TID 0000.0001) >  SEAICEadvSnow  = .FALSE.,
(PID.TID 0000.0001) >  SEAICEadvSalt  = .FALSE.,
(PID.TID 0000.0001) >#--
(PID.TID 0000.0001) > SEAICE_strength    = 2.6780e+04,
(PID.TID 0000.0001) > OCEAN_drag         = 8.1541e-04,
(PID.TID 0000.0001) > SEAICE_waterDrag   = 5.3508,
(PID.TID 0000.0001) > SEAICE_no_Slip     = .FALSE.,
(PID.TID 0000.0001) > LSR_ERROR          = 1.E-12,
(PID.TID 0000.0001) > SEAICElinearIterMax= 1500,
(PID.TID 0000.0001) >#LSR_mixIniGuess    = 1,
(PID.TID 0000.0001) > SEAICEadvScheme    = 77,
(PID.TID 0000.0001) > AreaFile  = 'const100.bin',
(PID.TID 0000.0001) > HeffFile  = 'const+20.bin',
(PID.TID 0000.0001) > HsnowFile = 'const_00.bin',
(PID.TID 0000.0001) > SEAICEwriteState   = .TRUE.,
(PID.TID 0000.0001) >#SEAICE_monFreq = 1800.,
(PID.TID 0000.0001) > &
(PID.TID 0000.0001) >
(PID.TID 0000.0001) > &SEAICE_PARM03
(PID.TID 0000.0001) > &
(PID.TID 0000.0001) 
(PID.TID 0000.0001)  SEAICE_READPARMS: finished reading data.seaice
(PID.TID 0000.0001) OPTIM_READPARMS: opening data.optim
(PID.TID 0000.0001)  OPEN_COPY_DATA_FILE: opening file data.optim
(PID.TID 0000.0001) // =======================================================
(PID.TID 0000.0001) // Parameter file "data.optim"
(PID.TID 0000.0001) // =======================================================
(PID.TID 0000.0001) >#
(PID.TID 0000.0001) ># ********************************
(PID.TID 0000.0001) ># Off-line optimization parameters
(PID.TID 0000.0001) ># ********************************
(PID.TID 0000.0001) > &OPTIM
(PID.TID 0000.0001) > optimcycle=12,
(PID.TID 0000.0001) > &
(PID.TID 0000.0001) 
(PID.TID 0000.0001) OPTIM_READPARMS: finished reading data.optim
(PID.TID 0000.0001) CTRL_READPARMS: opening data.ctrl
(PID.TID 0000.0001)  OPEN_COPY_DATA_FILE: opening file data.ctrl
(PID.TID 0000.0001) // =======================================================
(PID.TID 0000.0001) // Parameter file "data.ctrl"
(PID.TID 0000.0001) // =======================================================
(PID.TID 0000.0001) ># *********************
(PID.TID 0000.0001) ># ECCO control variables
(PID.TID 0000.0001) ># *********************
(PID.TID 0000.0001) > &ctrl_nml
(PID.TID 0000.0001) > doSinglePrecTapelev=.TRUE.,
(PID.TID 0000.0001) >#to start from given xx*00.data files
(PID.TID 0000.0001) >  doinitxx = .FALSE.,
(PID.TID 0000.0001) >  doMainUnpack = .FALSE.,
(PID.TID 0000.0001) >#to start from given ecco_ctrl... files
(PID.TID 0000.0001) ># doinitxx = .FALSE.,
(PID.TID 0000.0001) > &
(PID.TID 0000.0001) >#
(PID.TID 0000.0001) ># *********************
(PID.TID 0000.0001) ># names for ctrl_pack/unpack
(PID.TID 0000.0001) ># *********************
(PID.TID 0000.0001) > &ctrl_packnames
(PID.TID 0000.0001) > &
(PID.TID 0000.0001) >#
(PID.TID 0000.0001) ># *********************
(PID.TID 0000.0001) ># names for CTRL_GENARR2D,3D CTRL_GENTIM2D
(PID.TID 0000.0001) ># *********************
(PID.TID 0000.0001) > &CTRL_NML_GENARR
(PID.TID 0000.0001) >#
(PID.TID 0000.0001) > xx_genarr3d_weight(1) = 'wt_ones.data',
(PID.TID 0000.0001) > xx_genarr3d_file(1)='xx_kapgm',
(PID.TID 0000.0001) > mult_genarr3d(1) = 0.,
(PID.TID 0000.0001) >#
(PID.TID 0000.0001) > xx_genarr3d_weight(2) = 'wt_ones.data',
(PID.TID 0000.0001) > xx_genarr3d_file(2)='xx_kapredi',
(PID.TID 0000.0001) > mult_genarr3d(2) = 0.,
(PID.TID 0000.0001) >#
(PID.TID 0000.0001) > xx_genarr3d_weight(3) = 'wt_ones.data',
(PID.TID 0000.0001) > xx_genarr3d_file(3)='xx_diffkr',
(PID.TID 0000.0001) > mult_genarr3d(3) = 0.,
(PID.TID 0000.0001) >#
(PID.TID 0000.0001) > &
(PID.TID 0000.0001) 
(PID.TID 0000.0001) CTRL_READPARMS: finished reading data.ctrl
(PID.TID 0000.0001)  DIAGNOSTICS_READPARMS: opening data.diagnostics
(PID.TID 0000.0001)  OPEN_COPY_DATA_FILE: opening file data.diagnostics
(PID.TID 0000.0001) // =======================================================
(PID.TID 0000.0001) // Parameter file "data.diagnostics"
(PID.TID 0000.0001) // =======================================================
(PID.TID 0000.0001) ># Diagnostic Package Choices
(PID.TID 0000.0001) >#--------------------
(PID.TID 0000.0001) >#  dumpAtLast (logical): always write output at the end of simulation (default=F)
(PID.TID 0000.0001) >#  diag_mnc   (logical): write to NetCDF files (default=useMNC)
(PID.TID 0000.0001) >#--for each output-stream:
(PID.TID 0000.0001) >#  fileName(n) : prefix of the output file name (max 80c long) for outp.stream n
(PID.TID 0000.0001) >#  frequency(n):< 0 : write snap-shot output every |frequency| seconds
(PID.TID 0000.0001) >#               > 0 : write time-average output every frequency seconds
(PID.TID 0000.0001) >#  timePhase(n)     : write at time = timePhase + multiple of |frequency|
(PID.TID 0000.0001) >#    averagingFreq  : frequency (in s) for periodic averaging interval
(PID.TID 0000.0001) >#    averagingPhase : phase     (in s) for periodic averaging interval
(PID.TID 0000.0001) >#    repeatCycle    : number of averaging intervals in 1 cycle
(PID.TID 0000.0001) >#  levels(:,n) : list of levels to write to file (Notes: declared as REAL)
(PID.TID 0000.0001) >#                when this entry is missing, select all common levels of this list
(PID.TID 0000.0001) >#  fields(:,n) : list of selected diagnostics fields (8.c) in outp.stream n
(PID.TID 0000.0001) >#                (see "available_diagnostics.log" file for the full list of diags)
(PID.TID 0000.0001) >#  missing_value(n) : missing value for real-type fields in output file "n"
(PID.TID 0000.0001) >#  fileFlags(n)     : specific code (8c string) for output file "n"
(PID.TID 0000.0001) >#--------------------
(PID.TID 0000.0001) ># This example dumps EXF diagnostics as snapshot after 10 time-steps
(PID.TID 0000.0001) ># Note: EXF air-sea fluxes over Sea-Ice are wrong
(PID.TID 0000.0001) > &DIAGNOSTICS_LIST
(PID.TID 0000.0001) >   dumpAtLast  = .TRUE.,
(PID.TID 0000.0001) >#--
(PID.TID 0000.0001) >    fields(1:10,1)  = 'oceQnet ','oceQsw  ','oceFWflx','oceSflux',
(PID.TID 0000.0001) >                      'oceTAUX ','oceTAUY ',
(PID.TID 0000.0001) >                      'THETA   ','SALT    ','UVEL    ', 'VVEL    ',
(PID.TID 0000.0001) >   fileName(1) = 'surfDiag',
(PID.TID 0000.0001) >  frequency(1) = 3600.,
(PID.TID 0000.0001) >
(PID.TID 0000.0001) >  fields(1:8,2)  = 'SIarea  ','SIheff  ','SIhsnow ','sIceLoad',
(PID.TID 0000.0001) >                   'SIuice  ','SIvice  ','SItaux  ','SItauy  ',
(PID.TID 0000.0001) >   fileName(2) = 'iceDiag',
(PID.TID 0000.0001) >  frequency(2) =  3600.,
(PID.TID 0000.0001) >  missing_value(2) = -999.,
(PID.TID 0000.0001) >
(PID.TID 0000.0001) >  fields(1:8,3)  = 'SIarea  ','SIheff  ','SIhsnow ','sIceLoad',
(PID.TID 0000.0001) >                   'SIuice  ','SIvice  ','SItaux  ','SItauy  ',
(PID.TID 0000.0001) >#   fileName(3) = 'iceInst',
(PID.TID 0000.0001) >  frequency(3) = -900.,
(PID.TID 0000.0001) ># timePhase(3) =  3600.,
(PID.TID 0000.0001) >  missing_value(3) = -999.,
(PID.TID 0000.0001) >
(PID.TID 0000.0001) >  fields(1:3,4)  = 'SIareaN  ','SIheffN  ','SIhsnowN ',
(PID.TID 0000.0001) >  fileName(4) = 'iceNcat',
(PID.TID 0000.0001) >  frequency(4) =  3600.,
(PID.TID 0000.0001) >  missing_value(4) = -999.,
(PID.TID 0000.0001) >
(PID.TID 0000.0001) >&
(PID.TID 0000.0001) >#--------------------
(PID.TID 0000.0001) ># Parameter for Diagnostics of per level statistics:
(PID.TID 0000.0001) >#--------------------
(PID.TID 0000.0001) >#  diagSt_mnc (logical): write stat-diags to NetCDF files (default=diag_mnc)
(PID.TID 0000.0001) >#  diagSt_regMaskFile : file containing the region-mask to read-in
(PID.TID 0000.0001) >#  nSetRegMskFile   : number of region-mask sets within the region-mask file
(PID.TID 0000.0001) >#  set_regMask(i)   : region-mask set-index that identifies the region "i"
(PID.TID 0000.0001) >#  val_regMask(i)   : region "i" identifier value in the region mask
(PID.TID 0000.0001) >#--for each output-stream:
(PID.TID 0000.0001) >#  stat_fName(n) : prefix of the output file name (max 80c long) for outp.stream n
(PID.TID 0000.0001) >#  stat_freq(n):< 0 : write snap-shot output every |stat_freq| seconds
(PID.TID 0000.0001) >#               > 0 : write time-average output every stat_freq seconds
(PID.TID 0000.0001) >#  stat_phase(n)    : write at time = stat_phase + multiple of |stat_freq|
(PID.TID 0000.0001) >#  stat_region(:,n) : list of "regions" (default: 1 region only=global)
(PID.TID 0000.0001) >#  stat_fields(:,n) : list of selected diagnostics fields (8.c) in outp.stream n
(PID.TID 0000.0001) >#                (see "available_diagnostics.log" file for the full list of diags)
(PID.TID 0000.0001) >#--------------------
(PID.TID 0000.0001) > &DIAG_STATIS_PARMS
(PID.TID 0000.0001) > stat_fields(1:8,1)  = 'SIarea  ','SIheff  ','SIhsnow ','sIceLoad',
(PID.TID 0000.0001) >                       'SIuice  ','SIvice  ','SItaux  ','SItauy  ',
(PID.TID 0000.0001) >  stat_fName(1) = 'iceStDiag',
(PID.TID 0000.0001) >   stat_freq(1) =  900.,
(PID.TID 0000.0001) ># stat_phase(1) = 1800.,
(PID.TID 0000.0001) > &
(PID.TID 0000.0001) 
(PID.TID 0000.0001) S/R DIAGNOSTICS_READPARMS, read namelist "diagnostics_list": start
(PID.TID 0000.0001) S/R DIAGNOSTICS_READPARMS, read namelist "diagnostics_list": OK
(PID.TID 0000.0001) S/R DIAGNOSTICS_READPARMS, read namelist "DIAG_STATIS_PARMS": start
(PID.TID 0000.0001) S/R DIAGNOSTICS_READPARMS, read namelist "DIAG_STATIS_PARMS": OK
(PID.TID 0000.0001)  DIAGNOSTICS_READPARMS: global parameter summary:
(PID.TID 0000.0001)  dumpAtLast = /* always write time-ave diags at the end */
(PID.TID 0000.0001)                   T
(PID.TID 0000.0001)     ;
(PID.TID 0000.0001)  diag_mnc =   /* write NetCDF output files */
(PID.TID 0000.0001)                   F
(PID.TID 0000.0001)     ;
(PID.TID 0000.0001)  useMissingValue = /* put MissingValue where mask = 0 */
(PID.TID 0000.0001)                   F
(PID.TID 0000.0001)     ;
(PID.TID 0000.0001)  diagCG_maxIters = /* max number of iters in diag_cg2d */
(PID.TID 0000.0001)                     300
(PID.TID 0000.0001)     ;
(PID.TID 0000.0001)  diagCG_resTarget = /* residual target for diag_cg2d */
(PID.TID 0000.0001)                 1.000000000000000E-07
(PID.TID 0000.0001)     ;
(PID.TID 0000.0001)  diagCG_pcOffDFac = /* preconditioner off-diagonal factor */
(PID.TID 0000.0001)                 9.611687812379854E-01
(PID.TID 0000.0001)     ;
(PID.TID 0000.0001) -----------------------------------------------------
(PID.TID 0000.0001)  DIAGNOSTICS_READPARMS: active diagnostics summary:
(PID.TID 0000.0001) -----------------------------------------------------
(PID.TID 0000.0001) Creating Output Stream: surfDiag
(PID.TID 0000.0001) Output Frequency:       3600.000000 ; Phase:           0.000000
(PID.TID 0000.0001)  Averaging Freq.:       3600.000000 , Phase:           0.000000 , Cycle:   1
(PID.TID 0000.0001)  missing value: -9.990000000000E+02
(PID.TID 0000.0001)  Levels:    will be set later
(PID.TID 0000.0001)  Fields:    oceQnet  oceQsw   oceFWflx oceSflux oceTAUX  oceTAUY  THETA    SALT     UVEL     VVEL
(PID.TID 0000.0001) Creating Output Stream: iceDiag
(PID.TID 0000.0001) Output Frequency:       3600.000000 ; Phase:           0.000000
(PID.TID 0000.0001)  Averaging Freq.:       3600.000000 , Phase:           0.000000 , Cycle:   1
(PID.TID 0000.0001)  missing value: -9.990000000000E+02
(PID.TID 0000.0001)  Levels:    will be set later
(PID.TID 0000.0001)  Fields:    SIarea   SIheff   SIhsnow  sIceLoad SIuice   SIvice   SItaux   SItauy
(PID.TID 0000.0001) Creating Output Stream: iceNcat
(PID.TID 0000.0001) Output Frequency:       3600.000000 ; Phase:           0.000000
(PID.TID 0000.0001)  Averaging Freq.:       3600.000000 , Phase:           0.000000 , Cycle:   1
(PID.TID 0000.0001)  missing value: -9.990000000000E+02
(PID.TID 0000.0001)  Levels:    will be set later
(PID.TID 0000.0001)  Fields:    SIareaN  SIheffN  SIhsnowN
(PID.TID 0000.0001) -----------------------------------------------------
(PID.TID 0000.0001)  DIAGNOSTICS_READPARMS: statistics diags. summary:
(PID.TID 0000.0001) Creating Stats. Output Stream: iceStDiag
(PID.TID 0000.0001) Output Frequency:        900.000000 ; Phase:           0.000000
(PID.TID 0000.0001)  Regions:   0
(PID.TID 0000.0001)  Fields:    SIarea   SIheff   SIhsnow  sIceLoad SIuice   SIvice   SItaux   SItauy
(PID.TID 0000.0001) -----------------------------------------------------
(PID.TID 0000.0001) 
(PID.TID 0000.0001) SET_PARMS: done
(PID.TID 0000.0001) Enter INI_VERTICAL_GRID: setInterFDr=    T ; setCenterDr=    F
(PID.TID 0000.0001) tile:   4 ; Read from file tile001.mitgrid
(PID.TID 0000.0001)   => xC yC dxF dyF rA xG yG dxV dyU rAz dxC dyC rAw rAs dxG dyG
(PID.TID 0000.0001) %MON XC_max                       =   1.7997758946678E+02
(PID.TID 0000.0001) %MON XC_min                       =  -1.7998895680928E+02
(PID.TID 0000.0001) %MON XC_mean                      =  -6.8997670631350E+00
(PID.TID 0000.0001) %MON XC_sd                        =   1.0548127462941E+02
(PID.TID 0000.0001) %MON XG_max                       =   1.8000000000000E+02
(PID.TID 0000.0001) %MON XG_min                       =  -1.7999919444240E+02
(PID.TID 0000.0001) %MON XG_mean                      =  -6.3521159278861E+00
(PID.TID 0000.0001) %MON XG_sd                        =   1.0549598176576E+02
(PID.TID 0000.0001) %MON DXC_max                      =   1.1117680031365E+05
(PID.TID 0000.0001) %MON DXC_min                      =   1.3362789164732E+04
(PID.TID 0000.0001) %MON DXC_mean                     =   7.1345115143606E+04
(PID.TID 0000.0001) %MON DXC_sd                       =   2.6107013089865E+04
(PID.TID 0000.0001) %MON DXF_max                      =   1.1117680031365E+05
(PID.TID 0000.0001) %MON DXF_min                      =   1.3491575949394E+04
(PID.TID 0000.0001) %MON DXF_mean                     =   7.1334806791260E+04
(PID.TID 0000.0001) %MON DXF_sd                       =   2.6121349328995E+04
(PID.TID 0000.0001) %MON DXG_max                      =   1.1117747335204E+05
(PID.TID 0000.0001) %MON DXG_min                      =   1.0930409249570E+04
(PID.TID 0000.0001) %MON DXG_mean                     =   7.1313583950284E+04
(PID.TID 0000.0001) %MON DXG_sd                       =   2.6131714747840E+04
(PID.TID 0000.0001) %MON DXV_max                      =   1.1117747335204E+05
(PID.TID 0000.0001) %MON DXV_min                      =   9.4742518926426E+03
(PID.TID 0000.0001) %MON DXV_mean                     =   7.1323777998314E+04
(PID.TID 0000.0001) %MON DXV_sd                       =   2.6117603792432E+04
(PID.TID 0000.0001) %MON YC_max                       =   8.9739397429324E+01
(PID.TID 0000.0001) %MON YC_min                       =  -8.1637173529390E+01
(PID.TID 0000.0001) %MON YC_mean                      =  -5.9338515025079E-01
(PID.TID 0000.0001) %MON YC_sd                        =   5.1058908630085E+01
(PID.TID 0000.0001) %MON YG_max                       =   9.0000000000000E+01
(PID.TID 0000.0001) %MON YG_min                       =  -8.1805478609906E+01
(PID.TID 0000.0001) %MON YG_mean                      =  -5.7357831765458E-01
(PID.TID 0000.0001) %MON YG_sd                        =   5.1060174609345E+01
(PID.TID 0000.0001) %MON DYC_max                      =   1.1117680031365E+05
(PID.TID 0000.0001) %MON DYC_min                      =   1.3362789164732E+04
(PID.TID 0000.0001) %MON DYC_mean                     =   7.0982792089666E+04
(PID.TID 0000.0001) %MON DYC_sd                       =   2.6607387075348E+04
(PID.TID 0000.0001) %MON DYF_max                      =   1.1117680031365E+05
(PID.TID 0000.0001) %MON DYF_min                      =   1.3491575949394E+04
(PID.TID 0000.0001) %MON DYF_mean                     =   7.1000127494934E+04
(PID.TID 0000.0001) %MON DYF_sd                       =   2.6603606017547E+04
(PID.TID 0000.0001) %MON DYG_max                      =   1.1117747335204E+05
(PID.TID 0000.0001) %MON DYG_min                      =   1.0930409249570E+04
(PID.TID 0000.0001) %MON DYG_mean                     =   7.1022116512585E+04
(PID.TID 0000.0001) %MON DYG_sd                       =   2.6571715830406E+04
(PID.TID 0000.0001) %MON DYU_max                      =   1.1117747335204E+05
(PID.TID 0000.0001) %MON DYU_min                      =   9.4742518926426E+03
(PID.TID 0000.0001) %MON DYU_mean                     =   7.1004694583927E+04
(PID.TID 0000.0001) %MON DYU_sd                       =   2.6575655787476E+04
(PID.TID 0000.0001) %MON RA_max                       =   1.1896090857160E+10
(PID.TID 0000.0001) %MON RA_min                       =   2.1263387742345E+08
(PID.TID 0000.0001) %MON RA_mean                      =   5.6344293572480E+09
(PID.TID 0000.0001) %MON RA_sd                        =   3.5929461176606E+09
(PID.TID 0000.0001) %MON RAW_max                      =   1.1896090856781E+10
(PID.TID 0000.0001) %MON RAW_min                      =   1.7369571508711E+08
(PID.TID 0000.0001) %MON RAW_mean                     =   5.6355850434318E+09
(PID.TID 0000.0001) %MON RAW_sd                       =   3.5915487677190E+09
(PID.TID 0000.0001) %MON RAS_max                      =   1.1896090856781E+10
(PID.TID 0000.0001) %MON RAS_min                      =   1.7369571508711E+08
(PID.TID 0000.0001) %MON RAS_mean                     =   5.6320332286162E+09
(PID.TID 0000.0001) %MON RAS_sd                       =   3.5937184228135E+09
(PID.TID 0000.0001) %MON RAZ_max                      =   1.1891903479271E+10
(PID.TID 0000.0001) %MON RAZ_min                      =   1.0413402423292E+08
(PID.TID 0000.0001) %MON RAZ_mean                     =   5.6331824674695E+09
(PID.TID 0000.0001) %MON RAZ_sd                       =   3.5923307220197E+09
(PID.TID 0000.0001) %MON AngleCS_max                  =   1.0000000000000E+00
(PID.TID 0000.0001) %MON AngleCS_min                  =  -9.9996641938864E-01
(PID.TID 0000.0001) %MON AngleCS_mean                 =   4.0572930529500E-01
(PID.TID 0000.0001) %MON AngleCS_sd                   =   5.3874397836718E-01
(PID.TID 0000.0001) %MON AngleSN_max                  =   9.9996641938864E-01
(PID.TID 0000.0001) %MON AngleSN_min                  =  -1.0000000000000E+00
(PID.TID 0000.0001) %MON AngleSN_mean                 =  -4.9986154624599E-01
(PID.TID 0000.0001) %MON AngleSN_sd                   =   5.4339404779819E-01
(PID.TID 0000.0001)  MDS_READ_FIELD: opening global file: bathy.bin
(PID.TID 0000.0001) // =======================================================
(PID.TID 0000.0001) // Field Model R_low (ini_masks_etc)
(PID.TID 0000.0001) // CMIN =         -4.798482910156250E+03
(PID.TID 0000.0001) // CMAX =         -1.998999977111816E+01
(PID.TID 0000.0001) // CINT =          1.769812189031530E+02
(PID.TID 0000.0001) // SYMBOLS (CMIN->CMAX): -abcdefghijklmnopqrstuvwxyz+
(PID.TID 0000.0001) //                  0.0: .
(PID.TID 0000.0001) // RANGE I (Lo:Hi:Step):(    -3:    34:     1)
(PID.TID 0000.0001) // RANGE J (Lo:Hi:Step):(    34:    -3:    -1)
(PID.TID 0000.0001) // RANGE K (Lo:Hi:Step):(   1:   1:   1)
(PID.TID 0000.0001) // =======================================================
(PID.TID 0000.0001) K =   1
(PID.TID 0000.0001) //                I=6       I=16      I=26
(PID.TID 0000.0001) // |--J--|321012345|789012345|789012345|78901234
(PID.TID 0000.0001) //     34 ddccccbbbbbaaaaa--------------abdehjjh
(PID.TID 0000.0001) //     33 eddccccbbbbaaaaaaaaa---------abdefikmk
(PID.TID 0000.0001) //     32 eeddccccbbbbaaaaaaaaaaaaaa--abcfiijlnm
(PID.TID 0000.0001) //     31 eedddcccbbbbbaaaaabbaaaaaaa-bdgknm....
(PID.TID 0000.0001) //     30 feedddcccccbbbbbbbbbbbaaaaabfknpr.....
(PID.TID 0000.0001) //     29 feeddddddcccbbbcccbbbbbbbceilor.......
(PID.TID 0000.0001) //     28 gfeeeeeeddcccccdcccccbbceilnqu........
(PID.TID 0000.0001) //     27 hggfffffeeeeeddddddcccdfimpyy.........
(PID.TID 0000.0001) //     26 jihgggggffffeeeeeeddddfimsyy..........
(PID.TID 0000.0001) //     25 lkihhhgggggfeeeffeeefginuz............
(PID.TID 0000.0001) //     24 nmkjiihhghhgfffgggghjl+...............
(PID.TID 0000.0001) //     23 qonmkkjiiiiihhhihikmqz................
(PID.TID 0000.0001) //     22 tsqpnmlllmllkkkjknsxz.................
(PID.TID 0000.0001) //     21 wwvusppprrrponmlny+z..................
(PID.TID 0000.0001) //     20 yyyxxwvwwwwvusrwx.....................
(PID.TID 0000.0001) //     19 yyyyyyxxxxxxxxyyx.....................
(PID.TID 0000.0001) //     18 yyyyyyxxxwxxyyyyy.....................
(PID.TID 0000.0001) //     17 yyyyyxxxwwxxyyy.......................
(PID.TID 0000.0001) //     16 yyyxxxwwwwxyyyy.......................
(PID.TID 0000.0001) //     15 yyxxwwvvwxyyz.........................
(PID.TID 0000.0001) //     14 yxxwwvvvwyz...........................
(PID.TID 0000.0001) //     13 xxwwvuvwy.............................
(PID.TID 0000.0001) //     12 xwwvuuvx..............................
(PID.TID 0000.0001) //     11 yxvuuuw...............................
(PID.TID 0000.0001) //     10 ......................................
(PID.TID 0000.0001) //      9 ......................................
(PID.TID 0000.0001) //      8 ......................................
(PID.TID 0000.0001) //      7 ......................................
(PID.TID 0000.0001) //      6 ......................................
(PID.TID 0000.0001) //      5 ......................................
(PID.TID 0000.0001) //      4 ......................................
(PID.TID 0000.0001) //      3 ......................................
(PID.TID 0000.0001) //      2 ......................................
(PID.TID 0000.0001) //      1 ......................................
(PID.TID 0000.0001) //      0 ......................................
(PID.TID 0000.0001) //     -1 ......................................
(PID.TID 0000.0001) //     -2 ......................................
(PID.TID 0000.0001) //     -3 ......................................
(PID.TID 0000.0001) // =======================================================
(PID.TID 0000.0001) // END OF FIELD                                          =
(PID.TID 0000.0001) // =======================================================
(PID.TID 0000.0001) 
(PID.TID 0000.0001) // =======================================================
(PID.TID 0000.0001) // Field Model Ro_surf (ini_masks_etc)
(PID.TID 0000.0001) // CMIN =          1.000000000000000E+32
(PID.TID 0000.0001) // CMAX =         -1.000000000000000E+32
(PID.TID 0000.0001) // CINT =          0.000000000000000E+00
(PID.TID 0000.0001) // SYMBOLS (CMIN->CMAX): -abcdefghijklmnopqrstuvwxyz+
(PID.TID 0000.0001) //                  0.0: .
(PID.TID 0000.0001) // RANGE I (Lo:Hi:Step):(    -3:    34:     1)
(PID.TID 0000.0001) // RANGE J (Lo:Hi:Step):(    34:    -3:    -1)
(PID.TID 0000.0001) // RANGE K (Lo:Hi:Step):(   1:   1:   1)
(PID.TID 0000.0001) // =======================================================
(PID.TID 0000.0001) // =======================================================
(PID.TID 0000.0001) // END OF FIELD                                          =
(PID.TID 0000.0001) // =======================================================
(PID.TID 0000.0001) 
(PID.TID 0000.0001) // =======================================================
(PID.TID 0000.0001) // Field hFacC at iteration          0
(PID.TID 0000.0001) // CMIN =          1.000000000000000E+00
(PID.TID 0000.0001) // CMAX =          1.000000000000000E+00
(PID.TID 0000.0001) // CINT =          0.000000000000000E+00
(PID.TID 0000.0001) // SYMBOLS (CMIN->CMAX): -abcdefghijklmnopqrstuvwxyz+
(PID.TID 0000.0001) //                  0.0: .
(PID.TID 0000.0001) // RANGE I (Lo:Hi:Step):(    -3:    34:     1)
(PID.TID 0000.0001) // RANGE J (Lo:Hi:Step):(    34:    -3:    -1)
(PID.TID 0000.0001) // RANGE K (Lo:Hi:Step):(   1:   1:   1)
(PID.TID 0000.0001) // =======================================================
(PID.TID 0000.0001) // =======================================================
(PID.TID 0000.0001) // END OF FIELD                                          =
(PID.TID 0000.0001) // =======================================================
(PID.TID 0000.0001) 
(PID.TID 0000.0001) // =======================================================
(PID.TID 0000.0001) // Field hFacW at iteration          0
(PID.TID 0000.0001) // CMIN =          1.000000000000000E+00
(PID.TID 0000.0001) // CMAX =          1.000000000000000E+00
(PID.TID 0000.0001) // CINT =          0.000000000000000E+00
(PID.TID 0000.0001) // SYMBOLS (CMIN->CMAX): -abcdefghijklmnopqrstuvwxyz+
(PID.TID 0000.0001) //                  0.0: .
(PID.TID 0000.0001) // RANGE I (Lo:Hi:Step):(    -3:    34:     1)
(PID.TID 0000.0001) // RANGE J (Lo:Hi:Step):(    34:    -3:    -1)
(PID.TID 0000.0001) // RANGE K (Lo:Hi:Step):(   1:   1:   1)
(PID.TID 0000.0001) // =======================================================
(PID.TID 0000.0001) // =======================================================
(PID.TID 0000.0001) // END OF FIELD                                          =
(PID.TID 0000.0001) // =======================================================
(PID.TID 0000.0001) 
(PID.TID 0000.0001) // =======================================================
(PID.TID 0000.0001) // Field hFacS at iteration          0
(PID.TID 0000.0001) // CMIN =          1.000000000000000E+00
(PID.TID 0000.0001) // CMAX =          1.000000000000000E+00
(PID.TID 0000.0001) // CINT =          0.000000000000000E+00
(PID.TID 0000.0001) // SYMBOLS (CMIN->CMAX): -abcdefghijklmnopqrstuvwxyz+
(PID.TID 0000.0001) //                  0.0: .
(PID.TID 0000.0001) // RANGE I (Lo:Hi:Step):(    -3:    34:     1)
(PID.TID 0000.0001) // RANGE J (Lo:Hi:Step):(    34:    -3:    -1)
(PID.TID 0000.0001) // RANGE K (Lo:Hi:Step):(   1:   1:   1)
(PID.TID 0000.0001) // =======================================================
(PID.TID 0000.0001) // =======================================================
(PID.TID 0000.0001) // END OF FIELD                                          =
(PID.TID 0000.0001) // =======================================================
(PID.TID 0000.0001) 
(PID.TID 0000.0001) GAD_INIT_FIXED: GAD_OlMinSize=  2  0  2
(PID.TID 0000.0001) 
(PID.TID 0000.0001) // ===================================
(PID.TID 0000.0001) // GAD parameters :
(PID.TID 0000.0001) // ===================================
(PID.TID 0000.0001) tempAdvScheme =   /* Temp. Horiz.Advection scheme selector */
(PID.TID 0000.0001)                      30
(PID.TID 0000.0001)     ;
(PID.TID 0000.0001) tempVertAdvScheme =   /* Temp. Vert. Advection scheme selector */
(PID.TID 0000.0001)                       3
(PID.TID 0000.0001)     ;
(PID.TID 0000.0001) tempMultiDimAdvec =   /* use Muti-Dim Advec method for Temp */
(PID.TID 0000.0001)                   T
(PID.TID 0000.0001)     ;
(PID.TID 0000.0001) tempSOM_Advection = /* use 2nd Order Moment Advection for Temp */
(PID.TID 0000.0001)                   F
(PID.TID 0000.0001)     ;
(PID.TID 0000.0001) AdamsBashforthGt = /* apply Adams-Bashforth extrapolation on Gt */
(PID.TID 0000.0001)                   F
(PID.TID 0000.0001)     ;
(PID.TID 0000.0001) AdamsBashforth_T = /* apply Adams-Bashforth extrapolation on Temp */
(PID.TID 0000.0001)                   F
(PID.TID 0000.0001)     ;
(PID.TID 0000.0001) saltAdvScheme =   /* Salt. Horiz.advection scheme selector */
(PID.TID 0000.0001)                      30
(PID.TID 0000.0001)     ;
(PID.TID 0000.0001) saltVertAdvScheme =   /* Salt. Vert. Advection scheme selector */
(PID.TID 0000.0001)                       3
(PID.TID 0000.0001)     ;
(PID.TID 0000.0001) saltMultiDimAdvec =   /* use Muti-Dim Advec method for Salt */
(PID.TID 0000.0001)                   T
(PID.TID 0000.0001)     ;
(PID.TID 0000.0001) saltSOM_Advection = /* use 2nd Order Moment Advection for Salt */
(PID.TID 0000.0001)                   F
(PID.TID 0000.0001)     ;
(PID.TID 0000.0001) AdamsBashforthGs = /* apply Adams-Bashforth extrapolation on Gs */
(PID.TID 0000.0001)                   F
(PID.TID 0000.0001)     ;
(PID.TID 0000.0001) AdamsBashforth_S = /* apply Adams-Bashforth extrapolation on Salt */
(PID.TID 0000.0001)                   F
(PID.TID 0000.0001)     ;
(PID.TID 0000.0001) // ===================================
(PID.TID 0000.0001)  MDS_READ_FIELD: opening global file: viscA4Dfld.bin
(PID.TID 0000.0001)  MDS_READ_FIELD: opening global file: viscA4Zfld.bin
(PID.TID 0000.0001)  SEAICE_INIT_FIXED:  5 sea ice thickness categories
(PID.TID 0000.0001)  SEAICE_INIT_FIXED: Hlimit =   0.00  0.64  1.39  2.47  4.57 999.9
(PID.TID 0000.0001) // =======================================================
(PID.TID 0000.0001) // Seaice configuration (SEAICE_PARM01) >>> START <<<
(PID.TID 0000.0001) // =======================================================
(PID.TID 0000.0001) 
(PID.TID 0000.0001)    Seaice time stepping configuration   > START <
(PID.TID 0000.0001)    ----------------------------------------------
(PID.TID 0000.0001) SEAICE_deltaTtherm= /* thermodynamic timestep */
(PID.TID 0000.0001)                 9.000000000000000E+02
(PID.TID 0000.0001)     ;
(PID.TID 0000.0001) SEAICE_deltaTdyn  = /* dynamic timestep */
(PID.TID 0000.0001)                 9.000000000000000E+02
(PID.TID 0000.0001)     ;
(PID.TID 0000.0001) SEAICE_deltaTevp  = /* EVP timestep */
(PID.TID 0000.0001)                 1.234567000000000E+05
(PID.TID 0000.0001)     ;
(PID.TID 0000.0001) SEAICEuseBDF2  = /* use backw. differencing for mom. eq. */
(PID.TID 0000.0001)                   F
(PID.TID 0000.0001)     ;
(PID.TID 0000.0001) SEAICEupdateOceanStress= /* update Ocean surf. stress */
(PID.TID 0000.0001)                   F
(PID.TID 0000.0001)     ;
(PID.TID 0000.0001) SEAICErestoreUnderIce  = /* restore T and S under ice */
(PID.TID 0000.0001)                   F
(PID.TID 0000.0001)     ;
(PID.TID 0000.0001) 
(PID.TID 0000.0001)    Seaice dynamics configuration   > START <
(PID.TID 0000.0001)    ------------------------------------------
(PID.TID 0000.0001) SEAICEuseDYNAMICS = /* use dynamics */
(PID.TID 0000.0001)                   F
(PID.TID 0000.0001)     ;
(PID.TID 0000.0001)    pkg/seaice dynamics is OFF
(PID.TID 0000.0001) 
(PID.TID 0000.0001)    Seaice advection diffusion config,   > START <
(PID.TID 0000.0001)    -----------------------------------------------
(PID.TID 0000.0001) SEAICEmomAdvection = /* advect sea ice momentum */
(PID.TID 0000.0001)                   F
(PID.TID 0000.0001)     ;
(PID.TID 0000.0001) SEAICEadvHeff = /* advect effective ice thickness */
(PID.TID 0000.0001)                   F
(PID.TID 0000.0001)     ;
(PID.TID 0000.0001) SEAICEadvArea = /* advect fractional ice area */
(PID.TID 0000.0001)                   F
(PID.TID 0000.0001)     ;
(PID.TID 0000.0001) SEAICEadvSnow = /* advect snow layer together with ice */
(PID.TID 0000.0001)                   F
(PID.TID 0000.0001)     ;
(PID.TID 0000.0001) SEAICEadvScheme   = /* advection scheme for ice */
(PID.TID 0000.0001)                      77
(PID.TID 0000.0001)     ;
(PID.TID 0000.0001) SEAICEdiffKhArea   = /* diffusivity (m^2/s) for area */
(PID.TID 0000.0001)                 0.000000000000000E+00
(PID.TID 0000.0001)     ;
(PID.TID 0000.0001) SEAICEdiffKhHeff   = /* diffusivity (m^2/s) for heff */
(PID.TID 0000.0001)                 0.000000000000000E+00
(PID.TID 0000.0001)     ;
(PID.TID 0000.0001) SEAICEdiffKhSnow   = /* diffusivity (m^2/s) for snow */
(PID.TID 0000.0001)                 0.000000000000000E+00
(PID.TID 0000.0001)     ;
(PID.TID 0000.0001) DIFF1             = /* parameter used in advect.F [m/s] */
(PID.TID 0000.0001)                 0.000000000000000E+00
(PID.TID 0000.0001)     ;
(PID.TID 0000.0001) 
(PID.TID 0000.0001)    Seaice thermodynamics configuration   > START <
(PID.TID 0000.0001)    -----------------------------------------------
(PID.TID 0000.0001) SEAICE_rhoIce     = /* density of sea ice (kg/m3) */
(PID.TID 0000.0001)                 9.100000000000000E+02
(PID.TID 0000.0001)     ;
(PID.TID 0000.0001) SEAICE_rhoSnow    = /* density of snow (kg/m3) */
(PID.TID 0000.0001)                 3.300000000000000E+02
(PID.TID 0000.0001)     ;
(PID.TID 0000.0001) SEAICE_rhoAir     = /* density of air (kg/m3) */
(PID.TID 0000.0001)                 1.300000000000000E+00
(PID.TID 0000.0001)     ;
(PID.TID 0000.0001) usePW79thermodynamics  = /* default 0-layer TD */
(PID.TID 0000.0001)                   F
(PID.TID 0000.0001)     ;
(PID.TID 0000.0001)    pkg/seaice thermodynamics is OFF
(PID.TID 0000.0001) 
(PID.TID 0000.0001)    Seaice initialization and IO config.,   > START <
(PID.TID 0000.0001)    -------------------------------------------------
(PID.TID 0000.0001) SEAICE_initialHEFF= /* initial sea-ice thickness */
(PID.TID 0000.0001)                 0.000000000000000E+00
(PID.TID 0000.0001)     ;
(PID.TID 0000.0001) AreaFile = /* Initial ice concentration File */
(PID.TID 0000.0001)               'const100.bin'
(PID.TID 0000.0001)     ;
(PID.TID 0000.0001) HeffFile = /* Initial effective ice thickness File */
(PID.TID 0000.0001)               'const+20.bin'
(PID.TID 0000.0001)     ;
(PID.TID 0000.0001) HsnowFile = /* Initial snow thickness File */
(PID.TID 0000.0001)               'const_00.bin'
(PID.TID 0000.0001)     ;
(PID.TID 0000.0001) uIceFile = /* Initial U-ice velocity File */
(PID.TID 0000.0001)               ''
(PID.TID 0000.0001)     ;
(PID.TID 0000.0001) vIceFile = /* Initial V-ice velocity File */
(PID.TID 0000.0001)               ''
(PID.TID 0000.0001)     ;
(PID.TID 0000.0001) SEAICEwriteState  = /* write sea ice state to file */
(PID.TID 0000.0001)                   T
(PID.TID 0000.0001)     ;
(PID.TID 0000.0001) SEAICE_monFreq  = /* monitor frequency */
(PID.TID 0000.0001)                 7.200000000000000E+03
(PID.TID 0000.0001)     ;
(PID.TID 0000.0001) SEAICE_dumpFreq   = /* dump frequency */
(PID.TID 0000.0001)                 0.000000000000000E+00
(PID.TID 0000.0001)     ;
(PID.TID 0000.0001) SEAICE_taveFreq   = /* time-averaging frequency */
(PID.TID 0000.0001)                 0.000000000000000E+00
(PID.TID 0000.0001)     ;
(PID.TID 0000.0001) SEAICE_mon_stdio  = /* write monitor to std-outp */
(PID.TID 0000.0001)                   T
(PID.TID 0000.0001)     ;
(PID.TID 0000.0001) SEAICE_dump_mdsio = /* write snap-shot   using MDSIO */
(PID.TID 0000.0001)                   T
(PID.TID 0000.0001)     ;
(PID.TID 0000.0001) SEAICE_tave_mdsio = /* write TimeAverage using MDSIO */
(PID.TID 0000.0001)                   T
(PID.TID 0000.0001)     ;
(PID.TID 0000.0001) 
(PID.TID 0000.0001)    Seaice regularization numbers,   > START <
(PID.TID 0000.0001)    -----------------------------------------------
(PID.TID 0000.0001) SEAICE_deltaMin   = /* reduce singularities in Delta */
(PID.TID 0000.0001)                 1.000000000000000E-10
(PID.TID 0000.0001)     ;
(PID.TID 0000.0001) SEAICE_EPS        = /* small number */
(PID.TID 0000.0001)                 1.000000000000000E-10
(PID.TID 0000.0001)     ;
(PID.TID 0000.0001) SEAICE_EPS_SQ     = /* small number squared */
(PID.TID 0000.0001)                 1.000000000000000E-20
(PID.TID 0000.0001)     ;
(PID.TID 0000.0001) SEAICE_area_reg   = /* reduce derivative singularities */
(PID.TID 0000.0001)                 1.000000000000000E-05
(PID.TID 0000.0001)     ;
(PID.TID 0000.0001) SEAICE_hice_reg   = /* reduce derivative singularities */
(PID.TID 0000.0001)                 5.000000000000000E-02
(PID.TID 0000.0001)     ;
(PID.TID 0000.0001) SEAICE_area_floor = /* reduce derivative singularities */
(PID.TID 0000.0001)                 1.000000000000000E-05
(PID.TID 0000.0001)     ;
(PID.TID 0000.0001) 
(PID.TID 0000.0001) // =======================================================
(PID.TID 0000.0001) // Seaice configuration (SEAICE_PARM01) >>> END <<<
(PID.TID 0000.0001) // =======================================================
(PID.TID 0000.0001) 
(PID.TID 0000.0001) CTRL_INIT_REC: Getting record indices for
(PID.TID 0000.0001) CTRL_INIT_REC: Record indices for :
(PID.TID 0000.0001) CTRL_INIT_REC: startrec =          1, endrec =          1
(PID.TID 0000.0001) CTRL_INIT_REC: Getting record indices for
(PID.TID 0000.0001) CTRL_INIT_REC: Record indices for :
(PID.TID 0000.0001) CTRL_INIT_REC: startrec =          1, endrec =          1
(PID.TID 0000.0001) CTRL_INIT_REC: Getting record indices for
(PID.TID 0000.0001) CTRL_INIT_REC: Record indices for :
(PID.TID 0000.0001) CTRL_INIT_REC: startrec =          1, endrec =          1
(PID.TID 0000.0001) CTRL_INIT_REC: Getting record indices for
(PID.TID 0000.0001) CTRL_INIT_REC: Record indices for :
(PID.TID 0000.0001) CTRL_INIT_REC: startrec =          1, endrec =          1
(PID.TID 0000.0001) CTRL_INIT_REC: Getting record indices for
(PID.TID 0000.0001) CTRL_INIT_REC: Record indices for :
(PID.TID 0000.0001) CTRL_INIT_REC: startrec =          1, endrec =          1
(PID.TID 0000.0001) CTRL_INIT_REC: Getting record indices for
(PID.TID 0000.0001) CTRL_INIT_REC: Record indices for :
(PID.TID 0000.0001) CTRL_INIT_REC: startrec =          1, endrec =          1
(PID.TID 0000.0001) CTRL_INIT_REC: Getting record indices for
(PID.TID 0000.0001) CTRL_INIT_REC: Record indices for :
(PID.TID 0000.0001) CTRL_INIT_REC: startrec =          1, endrec =          1
(PID.TID 0000.0001) CTRL_INIT_REC: Getting record indices for
(PID.TID 0000.0001) CTRL_INIT_REC: Record indices for :
(PID.TID 0000.0001) CTRL_INIT_REC: startrec =          1, endrec =          1
(PID.TID 0000.0001) ctrl-wet 1:    nvarlength =        34632
(PID.TID 0000.0001) ctrl-wet 2: surface wet C =          312
(PID.TID 0000.0001) ctrl-wet 3: surface wet W =          312
(PID.TID 0000.0001) ctrl-wet 4: surface wet S =          283
(PID.TID 0000.0001) ctrl-wet 4a:surface wet V =            0
(PID.TID 0000.0001) ctrl-wet 5: 3D wet points =        11544
(PID.TID 0000.0001) ctrl-wet 6: no recs for i =     1           0
(PID.TID 0000.0001) ctrl-wet 6: no recs for i =     2           0
(PID.TID 0000.0001) ctrl-wet 6: no recs for i =     3           0
(PID.TID 0000.0001) ctrl-wet 6: no recs for i =     4           0
(PID.TID 0000.0001) ctrl-wet 6: no recs for i =     5           0
(PID.TID 0000.0001) ctrl-wet 6: no recs for i =     6           0
(PID.TID 0000.0001) ctrl-wet 6: no recs for i =     7           0
(PID.TID 0000.0001) ctrl-wet 6: no recs for i =     8           0
(PID.TID 0000.0001) ctrl-wet 6: no recs for i =     9           0
(PID.TID 0000.0001) ctrl-wet 6: no recs for i =    10           0
(PID.TID 0000.0001) ctrl-wet 6: no recs for i =    11           0
(PID.TID 0000.0001) ctrl-wet 6: no recs for i =    12           0
(PID.TID 0000.0001) ctrl-wet 6: no recs for i =    13           0
(PID.TID 0000.0001) ctrl-wet 6: no recs for i =    14           0
(PID.TID 0000.0001) ctrl-wet 6: no recs for i =    15           0
(PID.TID 0000.0001) ctrl-wet 6: no recs for i =    16           0
(PID.TID 0000.0001) ctrl-wet 6: no recs for i =    17           0
(PID.TID 0000.0001) ctrl-wet 6: no recs for i =    18           0
(PID.TID 0000.0001) ctrl-wet 6: no recs for i =    19           0
(PID.TID 0000.0001) ctrl-wet 6: no recs for i =    20           0
(PID.TID 0000.0001) ctrl-wet 6: no recs for i =    21           0
(PID.TID 0000.0001) ctrl-wet 6: no recs for i =    22           0
(PID.TID 0000.0001) ctrl-wet 6: no recs for i =    23           0
(PID.TID 0000.0001) ctrl-wet 6: no recs for i =    24           0
(PID.TID 0000.0001) ctrl-wet 6: no recs for i =    25           0
(PID.TID 0000.0001) ctrl-wet 6: no recs for i =    26           0
(PID.TID 0000.0001) ctrl-wet 6: no recs for i =    27           0
(PID.TID 0000.0001) ctrl-wet 6: no recs for i =    28           0
(PID.TID 0000.0001) ctrl-wet 6: no recs for i =    29           0
(PID.TID 0000.0001) ctrl-wet 6: no recs for i =    30           0
(PID.TID 0000.0001) ctrl-wet 6: no recs for i =    31           0
(PID.TID 0000.0001) ctrl-wet 6: no recs for i =    32           0
(PID.TID 0000.0001) ctrl-wet 6: no recs for i =    33           0
(PID.TID 0000.0001) ctrl-wet 6: no recs for i =    34           0
(PID.TID 0000.0001) ctrl-wet 6: no recs for i =    35           0
(PID.TID 0000.0001) ctrl-wet 6: no recs for i =    36           0
(PID.TID 0000.0001) ctrl-wet 6: no recs for i =    37           0
(PID.TID 0000.0001) ctrl-wet 6: no recs for i =    38           0
(PID.TID 0000.0001) ctrl-wet 6: no recs for i =    39           0
(PID.TID 0000.0001) ctrl-wet 6: no recs for i =    40           0
(PID.TID 0000.0001) ctrl-wet 6: no recs for i =    41           0
(PID.TID 0000.0001) ctrl-wet 6: no recs for i =    42           0
(PID.TID 0000.0001) ctrl-wet 6: no recs for i =    43           0
(PID.TID 0000.0001) ctrl-wet 6: no recs for i =    44           0
(PID.TID 0000.0001) ctrl-wet 6: no recs for i =    45           0
(PID.TID 0000.0001) ctrl-wet 6: no recs for i =    46           0
(PID.TID 0000.0001) ctrl-wet 6: no recs for i =    47           0
(PID.TID 0000.0001) ctrl-wet 6: no recs for i =    48           0
(PID.TID 0000.0001) ctrl-wet 6: no recs for i =    49           0
(PID.TID 0000.0001) ctrl-wet 6: no recs for i =    50           0
(PID.TID 0000.0001) ctrl-wet 6: no recs for i =    51           0
(PID.TID 0000.0001) ctrl-wet 6: no recs for i =    52           0
(PID.TID 0000.0001) ctrl-wet 6: no recs for i =    53           0
(PID.TID 0000.0001) ctrl-wet 6: no recs for i =    54           0
(PID.TID 0000.0001) ctrl-wet 6: no recs for i =    55           0
(PID.TID 0000.0001) ctrl-wet 6: no recs for i =    56           0
(PID.TID 0000.0001) ctrl-wet 6: no recs for i =    57           0
(PID.TID 0000.0001) ctrl-wet 6: no recs for i =    58           0
(PID.TID 0000.0001) ctrl-wet 6: no recs for i =    59           0
(PID.TID 0000.0001) ctrl-wet 6: no recs for i =    60           0
(PID.TID 0000.0001) ctrl-wet 6: no recs for i =    61           0
(PID.TID 0000.0001) ctrl-wet 6: no recs for i =    62           0
(PID.TID 0000.0001) ctrl-wet 6: no recs for i =    63           0
(PID.TID 0000.0001) ctrl-wet 6: no recs for i =    64           0
(PID.TID 0000.0001) ctrl-wet 6: no recs for i =    65           0
(PID.TID 0000.0001) ctrl-wet 6: no recs for i =    66           0
(PID.TID 0000.0001) ctrl-wet 6: no recs for i =    67           0
(PID.TID 0000.0001) ctrl-wet 6: no recs for i =    68           0
(PID.TID 0000.0001) ctrl-wet 6: no recs for i =    69           0
(PID.TID 0000.0001) ctrl-wet 6: no recs for i =    70           0
(PID.TID 0000.0001) ctrl-wet 6: no recs for i =    71           0
(PID.TID 0000.0001) ctrl-wet 6: no recs for i =    72           0
(PID.TID 0000.0001) ctrl-wet 6: no recs for i =    73           0
(PID.TID 0000.0001) ctrl-wet 6: no recs for i =    74           0
(PID.TID 0000.0001) ctrl-wet 6: no recs for i =    75           0
(PID.TID 0000.0001) ctrl-wet 6: no recs for i =    76           0
(PID.TID 0000.0001) ctrl-wet 6: no recs for i =    77           0
(PID.TID 0000.0001) ctrl-wet 6: no recs for i =    78           0
(PID.TID 0000.0001) ctrl-wet 6: no recs for i =    79           0
(PID.TID 0000.0001) ctrl-wet 6: no recs for i =    80           0
(PID.TID 0000.0001) ctrl-wet 6: no recs for i =    81           0
(PID.TID 0000.0001) ctrl-wet 6: no recs for i =    82           0
(PID.TID 0000.0001) ctrl-wet 6: no recs for i =    83           0
(PID.TID 0000.0001) ctrl-wet 6: no recs for i =    84           0
(PID.TID 0000.0001) ctrl-wet 6: no recs for i =    85           0
(PID.TID 0000.0001) ctrl-wet 6: no recs for i =    86           0
(PID.TID 0000.0001) ctrl-wet 6: no recs for i =    87           0
(PID.TID 0000.0001) ctrl-wet 6: no recs for i =    88           0
(PID.TID 0000.0001) ctrl-wet 6: no recs for i =    89           0
(PID.TID 0000.0001) ctrl-wet 6: no recs for i =    90           0
(PID.TID 0000.0001) ctrl-wet 6: no recs for i =    91           0
(PID.TID 0000.0001) ctrl-wet 6: no recs for i =    92           0
(PID.TID 0000.0001) ctrl-wet 6: no recs for i =    93           0
(PID.TID 0000.0001) ctrl-wet 6: no recs for i =    94           0
(PID.TID 0000.0001) ctrl-wet 6: no recs for i =    95           0
(PID.TID 0000.0001) ctrl-wet 6: no recs for i =    96           0
(PID.TID 0000.0001) ctrl-wet 6: no recs for i =    97           0
(PID.TID 0000.0001) ctrl-wet 6: no recs for i =    98           0
(PID.TID 0000.0001) ctrl-wet 6: no recs for i =    99           0
(PID.TID 0000.0001) ctrl-wet 6: no recs for i =   100           0
(PID.TID 0000.0001) ctrl-wet 6: no recs for i =   101           0
(PID.TID 0000.0001) ctrl-wet 6: no recs for i =   102           0
(PID.TID 0000.0001) ctrl-wet 6: no recs for i =   103           0
(PID.TID 0000.0001) ctrl-wet 6: no recs for i =   104           0
(PID.TID 0000.0001) ctrl-wet 6: no recs for i =   105           0
(PID.TID 0000.0001) ctrl-wet 6: no recs for i =   106           0
(PID.TID 0000.0001) ctrl-wet 6: no recs for i =   107           0
(PID.TID 0000.0001) ctrl-wet 6: no recs for i =   108           0
(PID.TID 0000.0001) ctrl-wet 6: no recs for i =   109           0
(PID.TID 0000.0001) ctrl-wet 6: no recs for i =   110           0
(PID.TID 0000.0001) ctrl-wet 6: no recs for i =   111           0
(PID.TID 0000.0001) ctrl-wet 6: no recs for i =   112           0
(PID.TID 0000.0001) ctrl-wet 6: no recs for i =   113           0
(PID.TID 0000.0001) ctrl-wet 6: no recs for i =   114           0
(PID.TID 0000.0001) ctrl-wet 6: no recs for i =   115           0
(PID.TID 0000.0001) ctrl-wet 6: no recs for i =   116           0
(PID.TID 0000.0001) ctrl-wet 6: no recs for i =   117           0
(PID.TID 0000.0001) ctrl-wet 6: no recs for i =   118           0
(PID.TID 0000.0001) ctrl-wet 6: no recs for i =   119           0
(PID.TID 0000.0001) ctrl-wet 6: no recs for i =   120           0
(PID.TID 0000.0001) ctrl-wet 6: no recs for i =   121           0
(PID.TID 0000.0001) ctrl-wet 6: no recs for i =   122           0
(PID.TID 0000.0001) ctrl-wet 6: no recs for i =   123           0
(PID.TID 0000.0001) ctrl-wet 6: no recs for i =   124           0
(PID.TID 0000.0001) ctrl-wet 6: no recs for i =   125           0
(PID.TID 0000.0001) ctrl-wet 6: no recs for i =   126           0
(PID.TID 0000.0001) ctrl-wet 6: no recs for i =   127           0
(PID.TID 0000.0001) ctrl-wet 6: no recs for i =   128           0
(PID.TID 0000.0001) ctrl-wet 6: no recs for i =   129           0
(PID.TID 0000.0001) ctrl-wet 6: no recs for i =   130           0
(PID.TID 0000.0001) ctrl-wet 6: no recs for i =   131           0
(PID.TID 0000.0001) ctrl-wet 6: no recs for i =   132           0
(PID.TID 0000.0001) ctrl-wet 6: no recs for i =   133           0
(PID.TID 0000.0001) ctrl-wet 6: no recs for i =   134           0
(PID.TID 0000.0001) ctrl-wet 6: no recs for i =   135           0
(PID.TID 0000.0001) ctrl-wet 6: no recs for i =   136           0
(PID.TID 0000.0001) ctrl-wet 6: no recs for i =   137           0
(PID.TID 0000.0001) ctrl-wet 6: no recs for i =   138           0
(PID.TID 0000.0001) ctrl-wet 6: no recs for i =   139           0
(PID.TID 0000.0001) ctrl-wet 6: no recs for i =   140           0
(PID.TID 0000.0001) ctrl-wet 6: no recs for i =   141           0
(PID.TID 0000.0001) ctrl-wet 6: no recs for i =   142           0
(PID.TID 0000.0001) ctrl-wet 6: no recs for i =   143           0
(PID.TID 0000.0001) ctrl-wet 6: no recs for i =   144           0
(PID.TID 0000.0001) ctrl-wet 6: no recs for i =   145           0
(PID.TID 0000.0001) ctrl-wet 6: no recs for i =   146           0
(PID.TID 0000.0001) ctrl-wet 6: no recs for i =   147           0
(PID.TID 0000.0001) ctrl-wet 6: no recs for i =   148           0
(PID.TID 0000.0001) ctrl-wet 6: no recs for i =   149           0
(PID.TID 0000.0001) ctrl-wet 6: no recs for i =   150           0
(PID.TID 0000.0001) ctrl-wet 6: no recs for i =   151           0
(PID.TID 0000.0001) ctrl-wet 6: no recs for i =   152           0
(PID.TID 0000.0001) ctrl-wet 6: no recs for i =   153           0
(PID.TID 0000.0001) ctrl-wet 6: no recs for i =   154           0
(PID.TID 0000.0001) ctrl-wet 6: no recs for i =   155           0
(PID.TID 0000.0001) ctrl-wet 6: no recs for i =   156           0
(PID.TID 0000.0001) ctrl-wet 6: no recs for i =   157           0
(PID.TID 0000.0001) ctrl-wet 6: no recs for i =   158           0
(PID.TID 0000.0001) ctrl-wet 6: no recs for i =   159           0
(PID.TID 0000.0001) ctrl-wet 6: no recs for i =   160           0
(PID.TID 0000.0001) ctrl-wet 6: no recs for i =   161           0
(PID.TID 0000.0001) ctrl-wet 6: no recs for i =   162           0
(PID.TID 0000.0001) ctrl-wet 6: no recs for i =   163           0
(PID.TID 0000.0001) ctrl-wet 6: no recs for i =   164           0
(PID.TID 0000.0001) ctrl-wet 6: no recs for i =   165           0
(PID.TID 0000.0001) ctrl-wet 6: no recs for i =   166           0
(PID.TID 0000.0001) ctrl-wet 6: no recs for i =   167           0
(PID.TID 0000.0001) ctrl-wet 6: no recs for i =   168           0
(PID.TID 0000.0001) ctrl-wet 6: no recs for i =   169           0
(PID.TID 0000.0001) ctrl-wet 6: no recs for i =   170           0
(PID.TID 0000.0001) ctrl-wet 6: no recs for i =   171           0
(PID.TID 0000.0001) ctrl-wet 6: no recs for i =   172           0
(PID.TID 0000.0001) ctrl-wet 6: no recs for i =   173           0
(PID.TID 0000.0001) ctrl-wet 6: no recs for i =   174           0
(PID.TID 0000.0001) ctrl-wet 6: no recs for i =   175           0
(PID.TID 0000.0001) ctrl-wet 6: no recs for i =   176           0
(PID.TID 0000.0001) ctrl-wet 6: no recs for i =   177           0
(PID.TID 0000.0001) ctrl-wet 6: no recs for i =   178           0
(PID.TID 0000.0001) ctrl-wet 6: no recs for i =   179           0
(PID.TID 0000.0001) ctrl-wet 6: no recs for i =   180           0
(PID.TID 0000.0001) ctrl-wet 6: no recs for i =   181           0
(PID.TID 0000.0001) ctrl-wet 6: no recs for i =   182           0
(PID.TID 0000.0001) ctrl-wet 6: no recs for i =   183           0
(PID.TID 0000.0001) ctrl-wet 6: no recs for i =   184           0
(PID.TID 0000.0001) ctrl-wet 6: no recs for i =   185           0
(PID.TID 0000.0001) ctrl-wet 6: no recs for i =   186           0
(PID.TID 0000.0001) ctrl-wet 6: no recs for i =   187           0
(PID.TID 0000.0001) ctrl-wet 6: no recs for i =   188           0
(PID.TID 0000.0001) ctrl-wet 6: no recs for i =   189           0
(PID.TID 0000.0001) ctrl-wet 6: no recs for i =   190           0
(PID.TID 0000.0001) ctrl-wet 6: no recs for i =   191           0
(PID.TID 0000.0001) ctrl-wet 6: no recs for i =   192           0
(PID.TID 0000.0001) ctrl-wet 6: no recs for i =   193           0
(PID.TID 0000.0001) ctrl-wet 6: no recs for i =   194           0
(PID.TID 0000.0001) ctrl-wet 6: no recs for i =   195           0
(PID.TID 0000.0001) ctrl-wet 6: no recs for i =   196           0
(PID.TID 0000.0001) ctrl-wet 6: no recs for i =   197           0
(PID.TID 0000.0001) ctrl-wet 6: no recs for i =   198           0
(PID.TID 0000.0001) ctrl-wet 6: no recs for i =   199           0
(PID.TID 0000.0001) ctrl-wet 6: no recs for i =   200           0
(PID.TID 0000.0001) ctrl-wet 6: no recs for i =   201           1
(PID.TID 0000.0001) ctrl-wet 6: no recs for i =   202           1
(PID.TID 0000.0001) ctrl-wet 6: no recs for i =   203           1
(PID.TID 0000.0001) ctrl-wet 6: no recs for i =   204           0
(PID.TID 0000.0001) ctrl-wet 6: no recs for i =   205           0
(PID.TID 0000.0001) ctrl-wet 6: no recs for i =   206           0
(PID.TID 0000.0001) ctrl-wet 6: no recs for i =   207           0
(PID.TID 0000.0001) ctrl-wet 6: no recs for i =   208           0
(PID.TID 0000.0001) ctrl-wet 6: no recs for i =   209           0
(PID.TID 0000.0001) ctrl-wet 6: no recs for i =   210           0
(PID.TID 0000.0001) ctrl-wet 6: no recs for i =   211           0
(PID.TID 0000.0001) ctrl-wet 6: no recs for i =   212           0
(PID.TID 0000.0001) ctrl-wet 6: no recs for i =   213           0
(PID.TID 0000.0001) ctrl-wet 6: no recs for i =   214           0
(PID.TID 0000.0001) ctrl-wet 6: no recs for i =   215           0
(PID.TID 0000.0001) ctrl-wet 6: no recs for i =   216           0
(PID.TID 0000.0001) ctrl-wet 6: no recs for i =   217           0
(PID.TID 0000.0001) ctrl-wet 6: no recs for i =   218           0
(PID.TID 0000.0001) ctrl-wet 6: no recs for i =   219           0
(PID.TID 0000.0001) ctrl-wet 6: no recs for i =   220           0
(PID.TID 0000.0001) ctrl-wet 6: no recs for i =   221           0
(PID.TID 0000.0001) ctrl-wet 6: no recs for i =   222           0
(PID.TID 0000.0001) ctrl-wet 6: no recs for i =   223           0
(PID.TID 0000.0001) ctrl-wet 6: no recs for i =   224           0
(PID.TID 0000.0001) ctrl-wet 6: no recs for i =   225           0
(PID.TID 0000.0001) ctrl-wet 6: no recs for i =   226           0
(PID.TID 0000.0001) ctrl-wet 6: no recs for i =   227           0
(PID.TID 0000.0001) ctrl-wet 6: no recs for i =   228           0
(PID.TID 0000.0001) ctrl-wet 6: no recs for i =   229           0
(PID.TID 0000.0001) ctrl-wet 6: no recs for i =   230           0
(PID.TID 0000.0001) ctrl-wet 6: no recs for i =   231           0
(PID.TID 0000.0001) ctrl-wet 6: no recs for i =   232           0
(PID.TID 0000.0001) ctrl-wet 6: no recs for i =   233           0
(PID.TID 0000.0001) ctrl-wet 6: no recs for i =   234           0
(PID.TID 0000.0001) ctrl-wet 6: no recs for i =   235           0
(PID.TID 0000.0001) ctrl-wet 6: no recs for i =   236           0
(PID.TID 0000.0001) ctrl-wet 6: no recs for i =   237           0
(PID.TID 0000.0001) ctrl-wet 6: no recs for i =   238           0
(PID.TID 0000.0001) ctrl-wet 6: no recs for i =   239           0
(PID.TID 0000.0001) ctrl-wet 6: no recs for i =   240           0
(PID.TID 0000.0001) ctrl-wet 6: no recs for i =   241           0
(PID.TID 0000.0001) ctrl-wet 6: no recs for i =   242           0
(PID.TID 0000.0001) ctrl-wet 6: no recs for i =   243           0
(PID.TID 0000.0001) ctrl-wet 6: no recs for i =   244           0
(PID.TID 0000.0001) ctrl-wet 6: no recs for i =   245           0
(PID.TID 0000.0001) ctrl-wet 6: no recs for i =   246           0
(PID.TID 0000.0001) ctrl-wet 6: no recs for i =   247           0
(PID.TID 0000.0001) ctrl-wet 6: no recs for i =   248           0
(PID.TID 0000.0001) ctrl-wet 6: no recs for i =   249           0
(PID.TID 0000.0001) ctrl-wet 6: no recs for i =   250           0
(PID.TID 0000.0001) ctrl-wet 6: no recs for i =   251           0
(PID.TID 0000.0001) ctrl-wet 6: no recs for i =   252           0
(PID.TID 0000.0001) ctrl-wet 6: no recs for i =   253           0
(PID.TID 0000.0001) ctrl-wet 6: no recs for i =   254           0
(PID.TID 0000.0001) ctrl-wet 6: no recs for i =   255           0
(PID.TID 0000.0001) ctrl-wet 6: no recs for i =   256           0
(PID.TID 0000.0001) ctrl-wet 6: no recs for i =   257           0
(PID.TID 0000.0001) ctrl-wet 6: no recs for i =   258           0
(PID.TID 0000.0001) ctrl-wet 6: no recs for i =   259           0
(PID.TID 0000.0001) ctrl-wet 6: no recs for i =   260           0
(PID.TID 0000.0001) ctrl-wet 6: no recs for i =   261           0
(PID.TID 0000.0001) ctrl-wet 6: no recs for i =   262           0
(PID.TID 0000.0001) ctrl-wet 6: no recs for i =   263           0
(PID.TID 0000.0001) ctrl-wet 6: no recs for i =   264           0
(PID.TID 0000.0001) ctrl-wet 6: no recs for i =   265           0
(PID.TID 0000.0001) ctrl-wet 6: no recs for i =   266           0
(PID.TID 0000.0001) ctrl-wet 6: no recs for i =   267           0
(PID.TID 0000.0001) ctrl-wet 6: no recs for i =   268           0
(PID.TID 0000.0001) ctrl-wet 6: no recs for i =   269           0
(PID.TID 0000.0001) ctrl-wet 6: no recs for i =   270           0
(PID.TID 0000.0001) ctrl-wet 6: no recs for i =   271           0
(PID.TID 0000.0001) ctrl-wet 6: no recs for i =   272           0
(PID.TID 0000.0001) ctrl-wet 6: no recs for i =   273           0
(PID.TID 0000.0001) ctrl-wet 6: no recs for i =   274           0
(PID.TID 0000.0001) ctrl-wet 6: no recs for i =   275           0
(PID.TID 0000.0001) ctrl-wet 6: no recs for i =   276           0
(PID.TID 0000.0001) ctrl-wet 6: no recs for i =   277           0
(PID.TID 0000.0001) ctrl-wet 6: no recs for i =   278           0
(PID.TID 0000.0001) ctrl-wet 6: no recs for i =   279           0
(PID.TID 0000.0001) ctrl-wet 6: no recs for i =   280           0
(PID.TID 0000.0001) ctrl-wet 6: no recs for i =   281           0
(PID.TID 0000.0001) ctrl-wet 6: no recs for i =   282           0
(PID.TID 0000.0001) ctrl-wet 6: no recs for i =   283           0
(PID.TID 0000.0001) ctrl-wet 6: no recs for i =   284           0
(PID.TID 0000.0001) ctrl-wet 6: no recs for i =   285           0
(PID.TID 0000.0001) ctrl-wet 6: no recs for i =   286           0
(PID.TID 0000.0001) ctrl-wet 6: no recs for i =   287           0
(PID.TID 0000.0001) ctrl-wet 6: no recs for i =   288           0
(PID.TID 0000.0001) ctrl-wet 6: no recs for i =   289           0
(PID.TID 0000.0001) ctrl-wet 6: no recs for i =   290           0
(PID.TID 0000.0001) ctrl-wet 6: no recs for i =   291           0
(PID.TID 0000.0001) ctrl-wet 6: no recs for i =   292           0
(PID.TID 0000.0001) ctrl-wet 6: no recs for i =   293           0
(PID.TID 0000.0001) ctrl-wet 6: no recs for i =   294           0
(PID.TID 0000.0001) ctrl-wet 6: no recs for i =   295           0
(PID.TID 0000.0001) ctrl-wet 6: no recs for i =   296           0
(PID.TID 0000.0001) ctrl-wet 6: no recs for i =   297           0
(PID.TID 0000.0001) ctrl-wet 6: no recs for i =   298           0
(PID.TID 0000.0001) ctrl-wet 6: no recs for i =   299           0
(PID.TID 0000.0001) ctrl-wet 6: no recs for i =   300           0
(PID.TID 0000.0001) ctrl-wet 6: no recs for i =   301           0
(PID.TID 0000.0001) ctrl-wet 6: no recs for i =   302           0
(PID.TID 0000.0001) ctrl-wet 6: no recs for i =   303           0
(PID.TID 0000.0001) ctrl-wet 6: no recs for i =   304           0
(PID.TID 0000.0001) ctrl-wet 6: no recs for i =   305           0
(PID.TID 0000.0001) ctrl-wet 6: no recs for i =   306           0
(PID.TID 0000.0001) ctrl-wet 6: no recs for i =   307           0
(PID.TID 0000.0001) ctrl-wet 6: no recs for i =   308           0
(PID.TID 0000.0001) ctrl-wet 6: no recs for i =   309           0
(PID.TID 0000.0001) ctrl-wet 6: no recs for i =   310           0
(PID.TID 0000.0001) ctrl-wet 6: no recs for i =   311           0
(PID.TID 0000.0001) ctrl-wet 6: no recs for i =   312           0
(PID.TID 0000.0001) ctrl-wet 6: no recs for i =   313           0
(PID.TID 0000.0001) ctrl-wet 6: no recs for i =   314           0
(PID.TID 0000.0001) ctrl-wet 6: no recs for i =   315           0
(PID.TID 0000.0001) ctrl-wet 6: no recs for i =   316           0
(PID.TID 0000.0001) ctrl-wet 6: no recs for i =   317           0
(PID.TID 0000.0001) ctrl-wet 6: no recs for i =   318           0
(PID.TID 0000.0001) ctrl-wet 6: no recs for i =   319           0
(PID.TID 0000.0001) ctrl-wet 6: no recs for i =   320           0
(PID.TID 0000.0001) ctrl-wet 6: no recs for i =   321           0
(PID.TID 0000.0001) ctrl-wet 6: no recs for i =   322           0
(PID.TID 0000.0001) ctrl-wet 6: no recs for i =   323           0
(PID.TID 0000.0001) ctrl-wet 6: no recs for i =   324           0
(PID.TID 0000.0001) ctrl-wet 6: no recs for i =   325           0
(PID.TID 0000.0001) ctrl-wet 6: no recs for i =   326           0
(PID.TID 0000.0001) ctrl-wet 6: no recs for i =   327           0
(PID.TID 0000.0001) ctrl-wet 6: no recs for i =   328           0
(PID.TID 0000.0001) ctrl-wet 6: no recs for i =   329           0
(PID.TID 0000.0001) ctrl-wet 6: no recs for i =   330           0
(PID.TID 0000.0001) ctrl-wet 6: no recs for i =   331           0
(PID.TID 0000.0001) ctrl-wet 6: no recs for i =   332           0
(PID.TID 0000.0001) ctrl-wet 6: no recs for i =   333           0
(PID.TID 0000.0001) ctrl-wet 6: no recs for i =   334           0
(PID.TID 0000.0001) ctrl-wet 6: no recs for i =   335           0
(PID.TID 0000.0001) ctrl-wet 6: no recs for i =   336           0
(PID.TID 0000.0001) ctrl-wet 6: no recs for i =   337           0
(PID.TID 0000.0001) ctrl-wet 6: no recs for i =   338           0
(PID.TID 0000.0001) ctrl-wet 6: no recs for i =   339           0
(PID.TID 0000.0001) ctrl-wet 6: no recs for i =   340           0
(PID.TID 0000.0001) ctrl-wet 6: no recs for i =   341           0
(PID.TID 0000.0001) ctrl-wet 6: no recs for i =   342           0
(PID.TID 0000.0001) ctrl-wet 6: no recs for i =   343           0
(PID.TID 0000.0001) ctrl-wet 6: no recs for i =   344           0
(PID.TID 0000.0001) ctrl-wet 6: no recs for i =   345           0
(PID.TID 0000.0001) ctrl-wet 6: no recs for i =   346           0
(PID.TID 0000.0001) ctrl-wet 6: no recs for i =   347           0
(PID.TID 0000.0001) ctrl-wet 6: no recs for i =   348           0
(PID.TID 0000.0001) ctrl-wet 6: no recs for i =   349           0
(PID.TID 0000.0001) ctrl-wet 6: no recs for i =   350           0
(PID.TID 0000.0001) ctrl-wet 6: no recs for i =   351           0
(PID.TID 0000.0001) ctrl-wet 6: no recs for i =   352           0
(PID.TID 0000.0001) ctrl-wet 6: no recs for i =   353           0
(PID.TID 0000.0001) ctrl-wet 6: no recs for i =   354           0
(PID.TID 0000.0001) ctrl-wet 6: no recs for i =   355           0
(PID.TID 0000.0001) ctrl-wet 6: no recs for i =   356           0
(PID.TID 0000.0001) ctrl-wet 6: no recs for i =   357           0
(PID.TID 0000.0001) ctrl-wet 6: no recs for i =   358           0
(PID.TID 0000.0001) ctrl-wet 6: no recs for i =   359           0
(PID.TID 0000.0001) ctrl-wet 6: no recs for i =   360           0
(PID.TID 0000.0001) ctrl-wet 6: no recs for i =   361           0
(PID.TID 0000.0001) ctrl-wet 6: no recs for i =   362           0
(PID.TID 0000.0001) ctrl-wet 6: no recs for i =   363           0
(PID.TID 0000.0001) ctrl-wet 6: no recs for i =   364           0
(PID.TID 0000.0001) ctrl-wet 6: no recs for i =   365           0
(PID.TID 0000.0001) ctrl-wet 6: no recs for i =   366           0
(PID.TID 0000.0001) ctrl-wet 6: no recs for i =   367           0
(PID.TID 0000.0001) ctrl-wet 6: no recs for i =   368           0
(PID.TID 0000.0001) ctrl-wet 6: no recs for i =   369           0
(PID.TID 0000.0001) ctrl-wet 6: no recs for i =   370           0
(PID.TID 0000.0001) ctrl-wet 6: no recs for i =   371           0
(PID.TID 0000.0001) ctrl-wet 6: no recs for i =   372           0
(PID.TID 0000.0001) ctrl-wet 6: no recs for i =   373           0
(PID.TID 0000.0001) ctrl-wet 6: no recs for i =   374           0
(PID.TID 0000.0001) ctrl-wet 6: no recs for i =   375           0
(PID.TID 0000.0001) ctrl-wet 6: no recs for i =   376           0
(PID.TID 0000.0001) ctrl-wet 6: no recs for i =   377           0
(PID.TID 0000.0001) ctrl-wet 6: no recs for i =   378           0
(PID.TID 0000.0001) ctrl-wet 6: no recs for i =   379           0
(PID.TID 0000.0001) ctrl-wet 6: no recs for i =   380           0
(PID.TID 0000.0001) ctrl-wet 6: no recs for i =   381           0
(PID.TID 0000.0001) ctrl-wet 6: no recs for i =   382           0
(PID.TID 0000.0001) ctrl-wet 6: no recs for i =   383           0
(PID.TID 0000.0001) ctrl-wet 6: no recs for i =   384           0
(PID.TID 0000.0001) ctrl-wet 6: no recs for i =   385           0
(PID.TID 0000.0001) ctrl-wet 6: no recs for i =   386           0
(PID.TID 0000.0001) ctrl-wet 6: no recs for i =   387           0
(PID.TID 0000.0001) ctrl-wet 6: no recs for i =   388           0
(PID.TID 0000.0001) ctrl-wet 6: no recs for i =   389           0
(PID.TID 0000.0001) ctrl-wet 6: no recs for i =   390           0
(PID.TID 0000.0001) ctrl-wet 6: no recs for i =   391           0
(PID.TID 0000.0001) ctrl-wet 6: no recs for i =   392           0
(PID.TID 0000.0001) ctrl-wet 6: no recs for i =   393           0
(PID.TID 0000.0001) ctrl-wet 6: no recs for i =   394           0
(PID.TID 0000.0001) ctrl-wet 6: no recs for i =   395           0
(PID.TID 0000.0001) ctrl-wet 6: no recs for i =   396           0
(PID.TID 0000.0001) ctrl-wet 6: no recs for i =   397           0
(PID.TID 0000.0001) ctrl-wet 6: no recs for i =   398           0
(PID.TID 0000.0001) ctrl-wet 6: no recs for i =   399           0
(PID.TID 0000.0001) ctrl-wet 6: no recs for i =   400           0
(PID.TID 0000.0001) ctrl-wet 7: flux         23088
(PID.TID 0000.0001) ctrl-wet 8: atmos        23088
(PID.TID 0000.0001) ctrl-wet -------------------------------------------------
(PID.TID 0000.0001) ctrl-wet 13: global nvarlength for Nr =   50     7220976
(PID.TID 0000.0001) ctrl-wet -------------------------------------------------
(PID.TID 0000.0001) ctrl-wet 14: global nWet C/S/W/V k=    1       60646       59295       59493           0
(PID.TID 0000.0001) ctrl-wet 14: global nWet C/S/W/V k=    2       60646       59295       59493           0
(PID.TID 0000.0001) ctrl-wet 14: global nWet C/S/W/V k=    3       59874       58517       58725           0
(PID.TID 0000.0001) ctrl-wet 14: global nWet C/S/W/V k=    4       59387       58040       58258           0
(PID.TID 0000.0001) ctrl-wet 14: global nWet C/S/W/V k=    5       58882       57536       57754           0
(PID.TID 0000.0001) ctrl-wet 14: global nWet C/S/W/V k=    6       58399       57057       57276           0
(PID.TID 0000.0001) ctrl-wet 14: global nWet C/S/W/V k=    7       58052       56735       56936           0
(PID.TID 0000.0001) ctrl-wet 14: global nWet C/S/W/V k=    8       57781       56461       56669           0
(PID.TID 0000.0001) ctrl-wet 14: global nWet C/S/W/V k=    9       57530       56212       56416           0
(PID.TID 0000.0001) ctrl-wet 14: global nWet C/S/W/V k=   10       57283       55964       56154           0
(PID.TID 0000.0001) ctrl-wet 14: global nWet C/S/W/V k=   11       57022       55702       55883           0
(PID.TID 0000.0001) ctrl-wet 14: global nWet C/S/W/V k=   12       56818       55497       55681           0
(PID.TID 0000.0001) ctrl-wet 14: global nWet C/S/W/V k=   13       56634       55322       55509           0
(PID.TID 0000.0001) ctrl-wet 14: global nWet C/S/W/V k=   14       56430       55125       55312           0
(PID.TID 0000.0001) ctrl-wet 14: global nWet C/S/W/V k=   15       56238       54935       55117           0
(PID.TID 0000.0001) ctrl-wet 14: global nWet C/S/W/V k=   16       55975       54689       54858           0
(PID.TID 0000.0001) ctrl-wet 14: global nWet C/S/W/V k=   17       55703       54421       54600           0
(PID.TID 0000.0001) ctrl-wet 14: global nWet C/S/W/V k=   18       55358       54075       54251           0
(PID.TID 0000.0001) ctrl-wet 14: global nWet C/S/W/V k=   19       54964       53666       53853           0
(PID.TID 0000.0001) ctrl-wet 14: global nWet C/S/W/V k=   20       54471       53205       53372           0
(PID.TID 0000.0001) ctrl-wet 14: global nWet C/S/W/V k=   21       53952       52716       52877           0
(PID.TID 0000.0001) ctrl-wet 14: global nWet C/S/W/V k=   22       53489       52249       52409           0
(PID.TID 0000.0001) ctrl-wet 14: global nWet C/S/W/V k=   23       52892       51633       51797           0
(PID.TID 0000.0001) ctrl-wet 14: global nWet C/S/W/V k=   24       52223       50961       51129           0
(PID.TID 0000.0001) ctrl-wet 14: global nWet C/S/W/V k=   25       51696       50480       50635           0
(PID.TID 0000.0001) ctrl-wet 14: global nWet C/S/W/V k=   26       51259       50075       50241           0
(PID.TID 0000.0001) ctrl-wet 14: global nWet C/S/W/V k=   27       50929       49774       49935           0
(PID.TID 0000.0001) ctrl-wet 14: global nWet C/S/W/V k=   28       50664       49532       49678           0
(PID.TID 0000.0001) ctrl-wet 14: global nWet C/S/W/V k=   29       50438       49306       49450           0
(PID.TID 0000.0001) ctrl-wet 14: global nWet C/S/W/V k=   30       50187       49035       49179           0
(PID.TID 0000.0001) ctrl-wet 14: global nWet C/S/W/V k=   31       49964       48805       48937           0
(PID.TID 0000.0001) ctrl-wet 14: global nWet C/S/W/V k=   32       49700       48530       48662           0
(PID.TID 0000.0001) ctrl-wet 14: global nWet C/S/W/V k=   33       49431       48260       48383           0
(PID.TID 0000.0001) ctrl-wet 14: global nWet C/S/W/V k=   34       49176       47993       48108           0
(PID.TID 0000.0001) ctrl-wet 14: global nWet C/S/W/V k=   35       48854       47652       47764           0
(PID.TID 0000.0001) ctrl-wet 14: global nWet C/S/W/V k=   36       48501       47264       47375           0
(PID.TID 0000.0001) ctrl-wet 14: global nWet C/S/W/V k=   37       48098       46846       46951           0
(PID.TID 0000.0001) ctrl-wet 14: global nWet C/S/W/V k=   38       47523       46253       46362           0
(PID.TID 0000.0001) ctrl-wet 14: global nWet C/S/W/V k=   39       46849       45558       45657           0
(PID.TID 0000.0001) ctrl-wet 14: global nWet C/S/W/V k=   40       45984       44670       44751           0
(PID.TID 0000.0001) ctrl-wet 14: global nWet C/S/W/V k=   41       44793       43419       43459           0
(PID.TID 0000.0001) ctrl-wet 14: global nWet C/S/W/V k=   42       42984       41497       41533           0
(PID.TID 0000.0001) ctrl-wet 14: global nWet C/S/W/V k=   43       40302       38691       38718           0
(PID.TID 0000.0001) ctrl-wet 14: global nWet C/S/W/V k=   44       36689       35007       35032           0
(PID.TID 0000.0001) ctrl-wet 14: global nWet C/S/W/V k=   45       31681       30069       29999           0
(PID.TID 0000.0001) ctrl-wet 14: global nWet C/S/W/V k=   46       25595       24028       24031           0
(PID.TID 0000.0001) ctrl-wet 14: global nWet C/S/W/V k=   47       18224       16890       16872           0
(PID.TID 0000.0001) ctrl-wet 14: global nWet C/S/W/V k=   48       11407       10397       10351           0
(PID.TID 0000.0001) ctrl-wet 14: global nWet C/S/W/V k=   49        4597        3913        3912           0
(PID.TID 0000.0001) ctrl-wet 14: global nWet C/S/W/V k=   50         818         624         622           0
(PID.TID 0000.0001) ctrl-wet -------------------------------------------------
(PID.TID 0000.0001) ctrl-wet -------------------------------------------------
(PID.TID 0000.0001) ctrl-wet -------------------------------------------------
(PID.TID 0000.0001) ctrl_init: no. of control variables:            3
(PID.TID 0000.0001) ctrl_init: control vector length:         7220976
(PID.TID 0000.0001) 
(PID.TID 0000.0001) // =======================================================
(PID.TID 0000.0001) // control vector configuration  >>> START <<<
(PID.TID 0000.0001) // =======================================================
(PID.TID 0000.0001) 
(PID.TID 0000.0001)  Total number of ocean points per tile:
(PID.TID 0000.0001)  --------------------------------------
(PID.TID 0000.0001)  snx*sny*nr =    45000
(PID.TID 0000.0001) 
(PID.TID 0000.0001)  Number of ocean points per tile:
(PID.TID 0000.0001)  --------------------------------
(PID.TID 0000.0001)  bi,bj,#(c/s/w): 0001 0001 011544 010207 011460
(PID.TID 0000.0001) 
(PID.TID 0000.0001)  Settings of generic controls:
(PID.TID 0000.0001)  -----------------------------
(PID.TID 0000.0001) 
(PID.TID 0000.0001)  ctrlUseGen  =     T /* use generic controls */
(PID.TID 0000.0001)  -> 3d control, genarr3d no.  1 is in use
(PID.TID 0000.0001)       file       = xx_kapgm
(PID.TID 0000.0001)       weight     = wt_ones.data
(PID.TID 0000.0001)  -> 3d control, genarr3d no.  2 is in use
(PID.TID 0000.0001)       file       = xx_kapredi
(PID.TID 0000.0001)       weight     = wt_ones.data
(PID.TID 0000.0001)  -> 3d control, genarr3d no.  3 is in use
(PID.TID 0000.0001)       file       = xx_diffkr
(PID.TID 0000.0001)       weight     = wt_ones.data
(PID.TID 0000.0001) 
(PID.TID 0000.0001) // =======================================================
(PID.TID 0000.0001) // control vector configuration  >>> END <<<
(PID.TID 0000.0001) // =======================================================
(PID.TID 0000.0001) 
(PID.TID 0000.0001) ------------------------------------------------------------
(PID.TID 0000.0001) DIAGNOSTICS_SET_LEVELS: done
(PID.TID 0000.0001)  Total Nb of available Diagnostics: ndiagt=   286
(PID.TID 0000.0001)  write list of available Diagnostics to file: available_diagnostics.log
(PID.TID 0000.0001) SETDIAG: Allocate  1 x  1 Levels for Diagnostic #    86 oceQnet
(PID.TID 0000.0001) SETDIAG: Allocate  1 x  1 Levels for Diagnostic #    87 oceQsw
(PID.TID 0000.0001) SETDIAG: Allocate  1 x  1 Levels for Diagnostic #    84 oceFWflx
(PID.TID 0000.0001) SETDIAG: Allocate  1 x  1 Levels for Diagnostic #    85 oceSflux
(PID.TID 0000.0001) SETDIAG: Allocate  1 x  1 Levels for Diagnostic #    80 oceTAUX
(PID.TID 0000.0001) SETDIAG: Allocate  1 x  1 Levels for Diagnostic #    81 oceTAUY
(PID.TID 0000.0001) SETDIAG: Allocate 50 x  1 Levels for Diagnostic #    26 THETA
(PID.TID 0000.0001) SETDIAG: Allocate 50 x  1 Levels for Diagnostic #    27 SALT
(PID.TID 0000.0001) SETDIAG: Allocate 50 x  1 Levels for Diagnostic #    30 UVEL
(PID.TID 0000.0001) SETDIAG: Allocate 50 x  1 Levels for Diagnostic #    31 VVEL
(PID.TID 0000.0001) SETDIAG: Allocate  1 x  1 Levels for Diagnostic #   214 SIarea
(PID.TID 0000.0001) SETDIAG: Allocate  1 x  1 Levels for Diagnostic #   217 SIheff
(PID.TID 0000.0001) SETDIAG: Allocate  1 x  1 Levels for Diagnostic #   219 SIhsnow
(PID.TID 0000.0001) SETDIAG: Allocate  1 x  1 Levels for Diagnostic #    83 sIceLoad
(PID.TID 0000.0001) SETDIAG: Allocate  1 x  1 Levels for Diagnostic #   223 SIuice
(PID.TID 0000.0001) SETDIAG: Allocate  1 x  1 Levels for Diagnostic #   224 SIvice
(PID.TID 0000.0001) SETDIAG: Allocate  1 x  1 Levels for Diagnostic #   225 SItaux
(PID.TID 0000.0001) SETDIAG: Allocate  1 x  1 Levels for Diagnostic #   226 SItauy
(PID.TID 0000.0001) SETDIAG: Allocate  5 x  1 Levels for Diagnostic #   285 SIareaN
(PID.TID 0000.0001) SETDIAG: Allocate  5 x  1 Levels for Diagnostic #   284 SIheffN
(PID.TID 0000.0001) SETDIAG: Allocate  5 x  1 Levels for Diagnostic #   286 SIhsnowN
(PID.TID 0000.0001)   space allocated for all diagnostics:     229 levels
(PID.TID 0000.0001)   set mate pointer for diag #    80  oceTAUX  , Parms: UU      U1 , mate:    81
(PID.TID 0000.0001)   set mate pointer for diag #    81  oceTAUY  , Parms: VV      U1 , mate:    80
(PID.TID 0000.0001)   set mate pointer for diag #    30  UVEL     , Parms: UUR     MR , mate:    31
(PID.TID 0000.0001)   set mate pointer for diag #    31  VVEL     , Parms: VVR     MR , mate:    30
(PID.TID 0000.0001)   set mate pointer for diag #   223  SIuice   , Parms: UU      M1 , mate:   224
(PID.TID 0000.0001)   set mate pointer for diag #   224  SIvice   , Parms: VV      M1 , mate:   223
(PID.TID 0000.0001)   set mate pointer for diag #   225  SItaux   , Parms: UU      U1 , mate:   226
(PID.TID 0000.0001)   set mate pointer for diag #   226  SItauy   , Parms: VV      U1 , mate:   225
(PID.TID 0000.0001) DIAGNOSTICS_SET_POINTERS: Set levels for Outp.Stream: surfDiag
(PID.TID 0000.0001)  Levels:       1.
(PID.TID 0000.0001) DIAGNOSTICS_SET_POINTERS: Set levels for Outp.Stream: iceDiag
(PID.TID 0000.0001)  Levels:       1.
(PID.TID 0000.0001) DIAGNOSTICS_SET_POINTERS: Set levels for Outp.Stream: iceNcat
(PID.TID 0000.0001)  Levels:       1.   2.   3.   4.   5.
(PID.TID 0000.0001) DIAGNOSTICS_SET_POINTERS: done
(PID.TID 0000.0001) ------------------------------------------------------------
(PID.TID 0000.0001) DIAGSTATS_SET_REGIONS: define   0 regions:
(PID.TID 0000.0001) ------------------------------------------------------------
(PID.TID 0000.0001) SETDIAG: Allocate  1 Levels for Stats-Diag #   214 SIarea
(PID.TID 0000.0001) SETDIAG: Allocate  1 Levels for Stats-Diag #   217 SIheff
(PID.TID 0000.0001) SETDIAG: Allocate  1 Levels for Stats-Diag #   219 SIhsnow
(PID.TID 0000.0001) SETDIAG: Allocate  1 Levels for Stats-Diag #    83 sIceLoad
(PID.TID 0000.0001) SETDIAG: Allocate  1 Levels for Stats-Diag #   223 SIuice
(PID.TID 0000.0001) SETDIAG: Allocate  1 Levels for Stats-Diag #   224 SIvice
(PID.TID 0000.0001) SETDIAG: Allocate  1 Levels for Stats-Diag #   225 SItaux
(PID.TID 0000.0001) SETDIAG: Allocate  1 Levels for Stats-Diag #   226 SItauy
(PID.TID 0000.0001)   space allocated for all stats-diags:       8 levels
(PID.TID 0000.0001) DIAGSTATS_SET_POINTERS: done
(PID.TID 0000.0001) ------------------------------------------------------------
(PID.TID 0000.0001) DIAGSTATS_INI_IO: open file: iceStDiag.0000000001.txt , unit=    37
(PID.TID 0000.0001) INI_GLOBAL_DOMAIN: Found   0 CS-corner Pts in the domain
(PID.TID 0000.0001) %MON fCori_max                    =   1.4584096177006E-04
(PID.TID 0000.0001) %MON fCori_min                    =  -1.4429171327635E-04
(PID.TID 0000.0001) %MON fCori_mean                   =  -1.9531894197173E-06
(PID.TID 0000.0001) %MON fCori_sd                     =   1.0434730642309E-04
(PID.TID 0000.0001) %MON fCoriG_max                   =   1.4584247033981E-04
(PID.TID 0000.0001) %MON fCoriG_min                   =  -1.4435339896041E-04
(PID.TID 0000.0001) %MON fCoriG_mean                  =  -1.9303770726087E-06
(PID.TID 0000.0001) %MON fCoriG_sd                    =   1.0435958182593E-04
(PID.TID 0000.0001) %MON fCoriCos_max                 =   1.4584158744890E-04
(PID.TID 0000.0001) %MON fCoriCos_min                 =   6.6334365221135E-07
(PID.TID 0000.0001) %MON fCoriCos_mean                =   9.3876998486639E-05
(PID.TID 0000.0001) %MON fCoriCos_sd                  =   3.9559575367967E-05
(PID.TID 0000.0001) INI_CG2D: CG2D normalisation factor =  7.1522409280111305E-05
(PID.TID 0000.0001) INI_CG2D: cg2dTolerance = 2.845112656120382E-05 (Area=3.5801386115E+14)
(PID.TID 0000.0001) 
(PID.TID 0000.0001) // =======================================================
(PID.TID 0000.0001) // Model configuration
(PID.TID 0000.0001) // =======================================================
(PID.TID 0000.0001) //
(PID.TID 0000.0001) // "Physical" paramters ( PARM01 in namelist )
(PID.TID 0000.0001) //
(PID.TID 0000.0001) buoyancyRelation = /* Type of relation to get Buoyancy */
(PID.TID 0000.0001)               'OCEANIC'
(PID.TID 0000.0001)     ;
(PID.TID 0000.0001) fluidIsAir   =  /* fluid major constituent is Air */
(PID.TID 0000.0001)                   F
(PID.TID 0000.0001)     ;
(PID.TID 0000.0001) fluidIsWater =  /* fluid major constituent is Water */
(PID.TID 0000.0001)                   T
(PID.TID 0000.0001)     ;
(PID.TID 0000.0001) usingPCoords =  /* use p (or p*) vertical coordinate */
(PID.TID 0000.0001)                   F
(PID.TID 0000.0001)     ;
(PID.TID 0000.0001) usingZCoords =  /* use z (or z*) vertical coordinate */
(PID.TID 0000.0001)                   T
(PID.TID 0000.0001)     ;
(PID.TID 0000.0001) tRef =   /* Reference temperature profile ( oC or K ) */
(PID.TID 0000.0001)     3 @  2.300000000000000E+01,             /* K =  1:  3 */
(PID.TID 0000.0001)     3 @  2.200000000000000E+01,             /* K =  4:  6 */
(PID.TID 0000.0001)                 2.100000000000000E+01,      /* K =  7 */
(PID.TID 0000.0001)     2 @  2.000000000000000E+01,             /* K =  8:  9 */
(PID.TID 0000.0001)                 1.900000000000000E+01,      /* K = 10 */
(PID.TID 0000.0001)     2 @  1.800000000000000E+01,             /* K = 11: 12 */
(PID.TID 0000.0001)                 1.700000000000000E+01,      /* K = 13 */
(PID.TID 0000.0001)     2 @  1.600000000000000E+01,             /* K = 14: 15 */
(PID.TID 0000.0001)                 1.500000000000000E+01,      /* K = 16 */
(PID.TID 0000.0001)                 1.400000000000000E+01,      /* K = 17 */
(PID.TID 0000.0001)                 1.300000000000000E+01,      /* K = 18 */
(PID.TID 0000.0001)                 1.200000000000000E+01,      /* K = 19 */
(PID.TID 0000.0001)                 1.100000000000000E+01,      /* K = 20 */
(PID.TID 0000.0001)     2 @  9.000000000000000E+00,             /* K = 21: 22 */
(PID.TID 0000.0001)                 8.000000000000000E+00,      /* K = 23 */
(PID.TID 0000.0001)                 7.000000000000000E+00,      /* K = 24 */
(PID.TID 0000.0001)     2 @  6.000000000000000E+00,             /* K = 25: 26 */
(PID.TID 0000.0001)     2 @  5.000000000000000E+00,             /* K = 27: 28 */
(PID.TID 0000.0001)     3 @  4.000000000000000E+00,             /* K = 29: 31 */
(PID.TID 0000.0001)     3 @  3.000000000000000E+00,             /* K = 32: 34 */
(PID.TID 0000.0001)     4 @  2.000000000000000E+00,             /* K = 35: 38 */
(PID.TID 0000.0001)    12 @  1.000000000000000E+00              /* K = 39: 50 */
(PID.TID 0000.0001)     ;
(PID.TID 0000.0001) sRef =   /* Reference salinity profile ( psu ) */
(PID.TID 0000.0001)    50 @  3.450000000000000E+01              /* K =  1: 50 */
(PID.TID 0000.0001)     ;
(PID.TID 0000.0001) useStrainTensionVisc= /* Use StrainTension Form of Viscous Operator */
(PID.TID 0000.0001)                   F
(PID.TID 0000.0001)     ;
(PID.TID 0000.0001) useVariableVisc = /* Use variable horizontal viscosity */
(PID.TID 0000.0001)                   T
(PID.TID 0000.0001)     ;
(PID.TID 0000.0001) useHarmonicVisc = /* Use harmonic horizontal viscosity */
(PID.TID 0000.0001)                   T
(PID.TID 0000.0001)     ;
(PID.TID 0000.0001) useBiharmonicVisc= /* Use biharmonic horiz.  viscosity */
(PID.TID 0000.0001)                   T
(PID.TID 0000.0001)     ;
(PID.TID 0000.0001) useSmag3D = /* Use isotropic 3-D Smagorinsky viscosity */
(PID.TID 0000.0001)                   F
(PID.TID 0000.0001)     ;
(PID.TID 0000.0001) viscAh  =   /* Lateral harmonic viscosity ( m^2/s ) */
(PID.TID 0000.0001)                 1.000000000000000E+00
(PID.TID 0000.0001)     ;
(PID.TID 0000.0001) viscAhMax = /* Maximum lateral harmonic viscosity ( m^2/s ) */
(PID.TID 0000.0001)                 1.000000000000000E+21
(PID.TID 0000.0001)     ;
(PID.TID 0000.0001) viscAhGrid = /* Grid dependent lateral harmonic viscosity ( non-dim. ) */
(PID.TID 0000.0001)                 2.000000000000000E-02
(PID.TID 0000.0001)     ;
(PID.TID 0000.0001) useFullLeith = /* Use Full Form of Leith Viscosity on/off flag*/
(PID.TID 0000.0001)                   F
(PID.TID 0000.0001)     ;
(PID.TID 0000.0001) useAreaViscLength = /* Use area for visc length instead of geom. mean*/
(PID.TID 0000.0001)                   F
(PID.TID 0000.0001)     ;
(PID.TID 0000.0001) viscC2leith = /* Leith harmonic visc. factor (on grad(vort),non-dim.) */
(PID.TID 0000.0001)                 0.000000000000000E+00
(PID.TID 0000.0001)     ;
(PID.TID 0000.0001) viscC2leithD = /* Leith harmonic viscosity factor (on grad(div),non-dim.)*/
(PID.TID 0000.0001)                 0.000000000000000E+00
(PID.TID 0000.0001)     ;
(PID.TID 0000.0001) viscC2smag = /* Smagorinsky harmonic viscosity factor (non-dim.) */
(PID.TID 0000.0001)                 0.000000000000000E+00
(PID.TID 0000.0001)     ;
(PID.TID 0000.0001) viscA4  =   /* Lateral biharmonic viscosity ( m^4/s ) */
(PID.TID 0000.0001)                 0.000000000000000E+00
(PID.TID 0000.0001)     ;
(PID.TID 0000.0001) viscA4Max = /* Maximum biharmonic viscosity ( m^2/s ) */
(PID.TID 0000.0001)                 1.000000000000000E+21
(PID.TID 0000.0001)     ;
(PID.TID 0000.0001) viscA4Grid = /* Grid dependent biharmonic viscosity ( non-dim. ) */
(PID.TID 0000.0001)                 0.000000000000000E+00
(PID.TID 0000.0001)     ;
(PID.TID 0000.0001) viscC4leith = /* Leith biharm viscosity factor (on grad(vort), non-dim.)*/
(PID.TID 0000.0001)                 0.000000000000000E+00
(PID.TID 0000.0001)     ;
(PID.TID 0000.0001) viscC4leithD = /* Leith biharm viscosity factor (on grad(div), non-dim.) */
(PID.TID 0000.0001)                 0.000000000000000E+00
(PID.TID 0000.0001)     ;
(PID.TID 0000.0001) viscC4Smag = /* Smagorinsky biharm viscosity factor (non-dim) */
(PID.TID 0000.0001)                 0.000000000000000E+00
(PID.TID 0000.0001)     ;
(PID.TID 0000.0001) no_slip_sides =  /* Viscous BCs: No-slip sides */
(PID.TID 0000.0001)                   T
(PID.TID 0000.0001)     ;
(PID.TID 0000.0001) sideDragFactor = /* side-drag scaling factor (non-dim) */
(PID.TID 0000.0001)                 2.000000000000000E+00
(PID.TID 0000.0001)     ;
(PID.TID 0000.0001) viscArNr = /* vertical profile of vertical viscosity ( m^2/s )*/
(PID.TID 0000.0001)    50 @  5.000000000000000E-05              /* K =  1: 50 */
(PID.TID 0000.0001)     ;
(PID.TID 0000.0001) no_slip_bottom =  /* Viscous BCs: No-slip bottom */
(PID.TID 0000.0001)                   T
(PID.TID 0000.0001)     ;
(PID.TID 0000.0001) bottomVisc_pCell = /* Partial-cell in bottom Visc. BC */
(PID.TID 0000.0001)                   F
(PID.TID 0000.0001)     ;
(PID.TID 0000.0001) bottomDragLinear = /* linear bottom-drag coefficient ( m/s ) */
(PID.TID 0000.0001)                 0.000000000000000E+00
(PID.TID 0000.0001)     ;
(PID.TID 0000.0001) bottomDragQuadratic = /* quadratic bottom-drag coefficient (-) */
(PID.TID 0000.0001)                 1.000000000000000E-03
(PID.TID 0000.0001)     ;
(PID.TID 0000.0001) selectBotDragQuadr = /* select quadratic bottom drag options */
(PID.TID 0000.0001)                       0
(PID.TID 0000.0001)     ;
(PID.TID 0000.0001) diffKhT =   /* Laplacian diffusion of heat laterally ( m^2/s ) */
(PID.TID 0000.0001)                 1.000000000000000E+01
(PID.TID 0000.0001)     ;
(PID.TID 0000.0001) diffK4T =   /* Biharmonic diffusion of heat laterally ( m^4/s ) */
(PID.TID 0000.0001)                 0.000000000000000E+00
(PID.TID 0000.0001)     ;
(PID.TID 0000.0001) diffKhS =   /* Laplacian diffusion of salt laterally ( m^2/s ) */
(PID.TID 0000.0001)                 1.000000000000000E+01
(PID.TID 0000.0001)     ;
(PID.TID 0000.0001) diffK4S =   /* Biharmonic diffusion of salt laterally ( m^4/s ) */
(PID.TID 0000.0001)                 0.000000000000000E+00
(PID.TID 0000.0001)     ;
(PID.TID 0000.0001) diffKrNrT = /* vertical profile of vertical diffusion of Temp ( m^2/s )*/
(PID.TID 0000.0001)    50 @  1.000000000000000E-05              /* K =  1: 50 */
(PID.TID 0000.0001)     ;
(PID.TID 0000.0001) diffKrNrS = /* vertical profile of vertical diffusion of Salt ( m^2/s )*/
(PID.TID 0000.0001)    50 @  1.000000000000000E-05              /* K =  1: 50 */
(PID.TID 0000.0001)     ;
(PID.TID 0000.0001) diffKrBL79surf = /* Surface diffusion for Bryan and Lewis 79 ( m^2/s ) */
(PID.TID 0000.0001)                 0.000000000000000E+00
(PID.TID 0000.0001)     ;
(PID.TID 0000.0001) diffKrBL79deep = /* Deep diffusion for Bryan and Lewis 1979 ( m^2/s ) */
(PID.TID 0000.0001)                 0.000000000000000E+00
(PID.TID 0000.0001)     ;
(PID.TID 0000.0001) diffKrBL79scl = /* Depth scale for Bryan and Lewis 1979 ( m ) */
(PID.TID 0000.0001)                 2.000000000000000E+02
(PID.TID 0000.0001)     ;
(PID.TID 0000.0001) diffKrBL79Ho = /* Turning depth for Bryan and Lewis 1979 ( m ) */
(PID.TID 0000.0001)                -2.000000000000000E+03
(PID.TID 0000.0001)     ;
(PID.TID 0000.0001) ivdc_kappa = /* Implicit Vertical Diffusivity for Convection ( m^2/s) */
(PID.TID 0000.0001)                 1.000000000000000E+01
(PID.TID 0000.0001)     ;
(PID.TID 0000.0001) hMixCriteria=  /* Criteria for mixed-layer diagnostic */
(PID.TID 0000.0001)                -8.000000000000000E-01
(PID.TID 0000.0001)     ;
(PID.TID 0000.0001) dRhoSmall =  /* Parameter for mixed-layer diagnostic */
(PID.TID 0000.0001)                 1.000000000000000E-06
(PID.TID 0000.0001)     ;
(PID.TID 0000.0001) hMixSmooth=  /* Smoothing parameter for mixed-layer diagnostic */
(PID.TID 0000.0001)                 0.000000000000000E+00
(PID.TID 0000.0001)     ;
(PID.TID 0000.0001) eosType =  /* Type of Equation of State */
(PID.TID 0000.0001)               'JMD95Z'
(PID.TID 0000.0001)     ;
(PID.TID 0000.0001) selectP_inEOS_Zc = /* select pressure to use in EOS (0,1,2,3) */
(PID.TID 0000.0001)                       0
(PID.TID 0000.0001)     0= -g*rhoConst*z ; 1= pRef (from tRef,sRef); 2= Hyd P ; 3= Hyd+NH P
(PID.TID 0000.0001)     ;
(PID.TID 0000.0001) HeatCapacity_Cp =  /* Specific heat capacity ( J/kg/K ) */
(PID.TID 0000.0001)                 3.994000000000000E+03
(PID.TID 0000.0001)     ;
(PID.TID 0000.0001) celsius2K = /* 0 degree Celsius converted to Kelvin ( K ) */
(PID.TID 0000.0001)                 2.731500000000000E+02
(PID.TID 0000.0001)     ;
(PID.TID 0000.0001) rhoConst  = /* Reference density (Boussinesq)  ( kg/m^3 ) */
(PID.TID 0000.0001)                 1.029000000000000E+03
(PID.TID 0000.0001)     ;
(PID.TID 0000.0001) rhoFacC = /* normalized Reference density @ cell-Center (-) */
(PID.TID 0000.0001)    50 @  1.000000000000000E+00              /* K =  1: 50 */
(PID.TID 0000.0001)     ;
(PID.TID 0000.0001) rhoFacF = /* normalized Reference density @ W-Interface (-) */
(PID.TID 0000.0001)    51 @  1.000000000000000E+00              /* K =  1: 51 */
(PID.TID 0000.0001)     ;
(PID.TID 0000.0001) rhoConstFresh = /* Fresh-water reference density ( kg/m^3 ) */
(PID.TID 0000.0001)                 1.000000000000000E+03
(PID.TID 0000.0001)     ;
(PID.TID 0000.0001) gravity =   /* Gravitational acceleration ( m/s^2 ) */
(PID.TID 0000.0001)                 9.810000000000000E+00
(PID.TID 0000.0001)     ;
(PID.TID 0000.0001) gBaro =   /* Barotropic gravity ( m/s^2 ) */
(PID.TID 0000.0001)                 9.810000000000000E+00
(PID.TID 0000.0001)     ;
(PID.TID 0000.0001) gravFacC = /* gravity factor (vs surf.) @ cell-Center (-) */
(PID.TID 0000.0001)    50 @  1.000000000000000E+00              /* K =  1: 50 */
(PID.TID 0000.0001)     ;
(PID.TID 0000.0001) gravFacF = /* gravity factor (vs surf.) @ W-Interface (-) */
(PID.TID 0000.0001)    51 @  1.000000000000000E+00              /* K =  1: 51 */
(PID.TID 0000.0001)     ;
(PID.TID 0000.0001) rotationPeriod =   /* Rotation Period ( s ) */
(PID.TID 0000.0001)                 8.616400000000000E+04
(PID.TID 0000.0001)     ;
(PID.TID 0000.0001) omega =   /* Angular velocity ( rad/s ) */
(PID.TID 0000.0001)                 7.292123516990375E-05
(PID.TID 0000.0001)     ;
(PID.TID 0000.0001) f0 =   /* Reference coriolis parameter ( 1/s ) */
(PID.TID 0000.0001)                 1.000000000000000E-04
(PID.TID 0000.0001)     ;
(PID.TID 0000.0001) beta =   /* Beta ( 1/(m.s) ) */
(PID.TID 0000.0001)                 9.999999999999999E-12
(PID.TID 0000.0001)     ;
(PID.TID 0000.0001) fPrime =   /* Second coriolis parameter ( 1/s ) */
(PID.TID 0000.0001)                 0.000000000000000E+00
(PID.TID 0000.0001)     ;
(PID.TID 0000.0001) rigidLid =   /* Rigid lid on/off flag */
(PID.TID 0000.0001)                   F
(PID.TID 0000.0001)     ;
(PID.TID 0000.0001) implicitFreeSurface =   /* Implicit free surface on/off flag */
(PID.TID 0000.0001)                   T
(PID.TID 0000.0001)     ;
(PID.TID 0000.0001) freeSurfFac =   /* Implicit free surface factor */
(PID.TID 0000.0001)                 1.000000000000000E+00
(PID.TID 0000.0001)     ;
(PID.TID 0000.0001) implicSurfPress =  /* Surface Pressure implicit factor (0-1)*/
(PID.TID 0000.0001)                 1.000000000000000E+00
(PID.TID 0000.0001)     ;
(PID.TID 0000.0001) implicDiv2DFlow =  /* Barot. Flow Div. implicit factor (0-1)*/
(PID.TID 0000.0001)                 1.000000000000000E+00
(PID.TID 0000.0001)     ;
(PID.TID 0000.0001) uniformLin_PhiSurf = /* use uniform Bo_surf on/off flag*/
(PID.TID 0000.0001)                   T
(PID.TID 0000.0001)     ;
(PID.TID 0000.0001) uniformFreeSurfLev = /* free-surface level-index is uniform */
(PID.TID 0000.0001)                   T
(PID.TID 0000.0001)     ;
(PID.TID 0000.0001) hFacMin =   /* minimum partial cell factor (hFac) */
(PID.TID 0000.0001)                 2.000000000000000E-01
(PID.TID 0000.0001)     ;
(PID.TID 0000.0001) hFacMinDr = /* minimum partial cell thickness ( m) */
(PID.TID 0000.0001)                 5.000000000000000E+00
(PID.TID 0000.0001)     ;
(PID.TID 0000.0001) exactConserv =  /* Exact Volume Conservation on/off flag*/
(PID.TID 0000.0001)                   T
(PID.TID 0000.0001)     ;
(PID.TID 0000.0001) linFSConserveTr = /* Tracer correction for Lin Free Surface on/off flag*/
(PID.TID 0000.0001)                   F
(PID.TID 0000.0001)     ;
(PID.TID 0000.0001) nonlinFreeSurf = /* Non-linear Free Surf. options (-1,0,1,2,3)*/
(PID.TID 0000.0001)                       4
(PID.TID 0000.0001)      -1,0= Off ; 1,2,3= On, 2=+rescale gU,gV, 3=+update cg2d solv.
(PID.TID 0000.0001)     ;
(PID.TID 0000.0001) hFacInf =   /* lower threshold for hFac (nonlinFreeSurf only)*/
(PID.TID 0000.0001)                 2.000000000000000E-01
(PID.TID 0000.0001)     ;
(PID.TID 0000.0001) hFacSup =   /* upper threshold for hFac (nonlinFreeSurf only)*/
(PID.TID 0000.0001)                 2.000000000000000E+00
(PID.TID 0000.0001)     ;
(PID.TID 0000.0001) select_rStar = /* r* Vertical coord. options (=0 r coord.; >0 uses r*)*/
(PID.TID 0000.0001)                       2
(PID.TID 0000.0001)     ;
(PID.TID 0000.0001) useRealFreshWaterFlux = /* Real Fresh Water Flux on/off flag*/
(PID.TID 0000.0001)                   T
(PID.TID 0000.0001)     ;
(PID.TID 0000.0001) temp_EvPrRn = /* Temp. of Evap/Prec/R (UNSET=use local T)(oC)*/
(PID.TID 0000.0001)                 1.234567000000000E+05
(PID.TID 0000.0001)     ;
(PID.TID 0000.0001) salt_EvPrRn = /* Salin. of Evap/Prec/R (UNSET=use local S)(psu)*/
(PID.TID 0000.0001)                 0.000000000000000E+00
(PID.TID 0000.0001)     ;
(PID.TID 0000.0001) selectAddFluid = /* option for mass source/sink of fluid (=0: off) */
(PID.TID 0000.0001)                       0
(PID.TID 0000.0001)     ;
(PID.TID 0000.0001) temp_addMass = /* Temp. of addMass array (UNSET=use local T)(oC)*/
(PID.TID 0000.0001)                 1.234567000000000E+05
(PID.TID 0000.0001)     ;
(PID.TID 0000.0001) salt_addMass = /* Salin. of addMass array (UNSET=use local S)(psu)*/
(PID.TID 0000.0001)                 0.000000000000000E+00
(PID.TID 0000.0001)     ;
(PID.TID 0000.0001) use3Dsolver = /* use 3-D pressure solver on/off flag */
(PID.TID 0000.0001)                   F
(PID.TID 0000.0001)     ;
(PID.TID 0000.0001) nonHydrostatic =  /* Non-Hydrostatic on/off flag */
(PID.TID 0000.0001)                   F
(PID.TID 0000.0001)     ;
(PID.TID 0000.0001) nh_Am2 = /* Non-Hydrostatic terms scaling factor */
(PID.TID 0000.0001)                 1.000000000000000E+00
(PID.TID 0000.0001)     ;
(PID.TID 0000.0001) implicitNHPress = /* Non-Hyd Pressure implicit factor (0-1)*/
(PID.TID 0000.0001)                 1.000000000000000E+00
(PID.TID 0000.0001)     ;
(PID.TID 0000.0001) selectNHfreeSurf = /* Non-Hyd (free-)Surface option */
(PID.TID 0000.0001)                       0
(PID.TID 0000.0001)     ;
(PID.TID 0000.0001) quasiHydrostatic = /* Quasi-Hydrostatic on/off flag */
(PID.TID 0000.0001)                   F
(PID.TID 0000.0001)     ;
(PID.TID 0000.0001) calc_wVelocity = /* vertical velocity calculation on/off flag */
(PID.TID 0000.0001)                   T
(PID.TID 0000.0001)     ;
(PID.TID 0000.0001) momStepping =  /* Momentum equation on/off flag */
(PID.TID 0000.0001)                   T
(PID.TID 0000.0001)     ;
(PID.TID 0000.0001) vectorInvariantMomentum= /* Vector-Invariant Momentum on/off */
(PID.TID 0000.0001)                   T
(PID.TID 0000.0001)     ;
(PID.TID 0000.0001) momAdvection =  /* Momentum advection on/off flag */
(PID.TID 0000.0001)                   T
(PID.TID 0000.0001)     ;
(PID.TID 0000.0001) momViscosity =  /* Momentum viscosity on/off flag */
(PID.TID 0000.0001)                   T
(PID.TID 0000.0001)     ;
(PID.TID 0000.0001) momImplVertAdv= /* Momentum implicit vert. advection on/off*/
(PID.TID 0000.0001)                   F
(PID.TID 0000.0001)     ;
(PID.TID 0000.0001) implicitViscosity = /* Implicit viscosity on/off flag */
(PID.TID 0000.0001)                   T
(PID.TID 0000.0001)     ;
(PID.TID 0000.0001) selectImplicitDrag= /* Implicit bot Drag options (0,1,2)*/
(PID.TID 0000.0001)                       0
(PID.TID 0000.0001)     0= Expl. ; 1= Impl. on provis. Vel ; 2= Fully Impl (with surf.P)
(PID.TID 0000.0001)     ;
(PID.TID 0000.0001) metricTerms =  /* metric-Terms on/off flag */
(PID.TID 0000.0001)                   F
(PID.TID 0000.0001)     ;
(PID.TID 0000.0001) useNHMTerms = /* Non-Hydrostatic Metric-Terms on/off */
(PID.TID 0000.0001)                   F
(PID.TID 0000.0001)     ;
(PID.TID 0000.0001) selectCoriMap = /* Coriolis Map options (0,1,2,3)*/
(PID.TID 0000.0001)                       2
(PID.TID 0000.0001)     0= f-Plane ; 1= Beta-Plane ; 2= Spherical ; 3= read from file
(PID.TID 0000.0001)     ;
(PID.TID 0000.0001) use3dCoriolis = /* 3-D Coriolis on/off flag */
(PID.TID 0000.0001)                   F
(PID.TID 0000.0001)     ;
(PID.TID 0000.0001) useCoriolis =  /* Coriolis on/off flag */
(PID.TID 0000.0001)                   T
(PID.TID 0000.0001)     ;
(PID.TID 0000.0001) useCDscheme =  /* CD scheme on/off flag */
(PID.TID 0000.0001)                   F
(PID.TID 0000.0001)     ;
(PID.TID 0000.0001) useEnergyConservingCoriolis= /* Flx-Form Coriolis scheme flag */
(PID.TID 0000.0001)                   F
(PID.TID 0000.0001)     ;
(PID.TID 0000.0001) useJamartWetPoints= /* Coriolis WetPoints method flag */
(PID.TID 0000.0001)                   T
(PID.TID 0000.0001)     ;
(PID.TID 0000.0001) useJamartMomAdv= /* V.I Non-linear terms Jamart flag */
(PID.TID 0000.0001)                   F
(PID.TID 0000.0001)     ;
(PID.TID 0000.0001) useAbsVorticity= /* V.I Works with f+zeta in Coriolis */
(PID.TID 0000.0001)                   F
(PID.TID 0000.0001)     ;
(PID.TID 0000.0001) selectVortScheme= /* V.I Scheme selector for Vorticity-Term */
(PID.TID 0000.0001)                       1
(PID.TID 0000.0001)    = 0 : enstrophy (Shallow-Water Eq.) conserving scheme by Sadourny, JAS 75
(PID.TID 0000.0001)    = 1 : same as 0 with modified hFac
(PID.TID 0000.0001)    = 2 : energy conserving scheme (used by Sadourny in JAS 75 paper)
(PID.TID 0000.0001)    = 3 : energy (general) and enstrophy (2D, nonDiv.) conserving scheme
(PID.TID 0000.0001)          from Sadourny (Burridge & Haseler, ECMWF Rep.4, 1977)
(PID.TID 0000.0001)     ;
(PID.TID 0000.0001) upwindVorticity= /* V.I Upwind bias vorticity flag */
(PID.TID 0000.0001)                   F
(PID.TID 0000.0001)     ;
(PID.TID 0000.0001) highOrderVorticity= /* V.I High order vort. advect. flag */
(PID.TID 0000.0001)                   F
(PID.TID 0000.0001)     ;
(PID.TID 0000.0001) upwindShear= /* V.I Upwind vertical Shear advection flag */
(PID.TID 0000.0001)                   F
(PID.TID 0000.0001)     ;
(PID.TID 0000.0001) selectKEscheme= /* V.I Kinetic Energy scheme selector */
(PID.TID 0000.0001)                       0
(PID.TID 0000.0001)     ;
(PID.TID 0000.0001) momForcing =  /* Momentum forcing on/off flag */
(PID.TID 0000.0001)                   T
(PID.TID 0000.0001)     ;
(PID.TID 0000.0001) momTidalForcing = /* Momentum Tidal forcing on/off flag */
(PID.TID 0000.0001)                   T
(PID.TID 0000.0001)     ;
(PID.TID 0000.0001) momPressureForcing =  /* Momentum pressure term on/off flag */
(PID.TID 0000.0001)                   T
(PID.TID 0000.0001)     ;
(PID.TID 0000.0001) implicitIntGravWave= /* Implicit Internal Gravity Wave flag */
(PID.TID 0000.0001)                   F
(PID.TID 0000.0001)     ;
(PID.TID 0000.0001) staggerTimeStep =    /* Stagger time stepping on/off flag */
(PID.TID 0000.0001)                   T
(PID.TID 0000.0001)     ;
(PID.TID 0000.0001) doResetHFactors = /* reset thickness factors @ each time-step */
(PID.TID 0000.0001)                   F
(PID.TID 0000.0001)     ;
(PID.TID 0000.0001) multiDimAdvection =  /* enable/disable Multi-Dim Advection */
(PID.TID 0000.0001)                   T
(PID.TID 0000.0001)     ;
(PID.TID 0000.0001) useMultiDimAdvec =   /* Multi-Dim Advection is/is-not used */
(PID.TID 0000.0001)                   T
(PID.TID 0000.0001)     ;
(PID.TID 0000.0001) implicitDiffusion = /* Implicit Diffusion on/off flag */
(PID.TID 0000.0001)                   T
(PID.TID 0000.0001)     ;
(PID.TID 0000.0001) tempStepping =  /* Temperature equation on/off flag */
(PID.TID 0000.0001)                   T
(PID.TID 0000.0001)     ;
(PID.TID 0000.0001) tempAdvection = /* Temperature advection on/off flag */
(PID.TID 0000.0001)                   T
(PID.TID 0000.0001)     ;
(PID.TID 0000.0001) tempImplVertAdv = /* Temp. implicit vert. advection on/off */
(PID.TID 0000.0001)                   T
(PID.TID 0000.0001)     ;
(PID.TID 0000.0001) tempForcing  =  /* Temperature forcing on/off flag */
(PID.TID 0000.0001)                   T
(PID.TID 0000.0001)     ;
(PID.TID 0000.0001) balanceQnet  =  /* balance net heat-flux on/off flag */
(PID.TID 0000.0001)                   F
(PID.TID 0000.0001)     ;
(PID.TID 0000.0001) doThetaClimRelax = /* apply SST relaxation on/off flag */
(PID.TID 0000.0001)                   F
(PID.TID 0000.0001)     ;
(PID.TID 0000.0001) balanceThetaClimRelax= /* balance SST relaxation on/off flag */
(PID.TID 0000.0001)                   F
(PID.TID 0000.0001)     ;
(PID.TID 0000.0001) tempIsActiveTr = /* Temp. is a dynamically Active Tracer */
(PID.TID 0000.0001)                   T
(PID.TID 0000.0001)     ;
(PID.TID 0000.0001) saltStepping =  /* Salinity equation on/off flag */
(PID.TID 0000.0001)                   T
(PID.TID 0000.0001)     ;
(PID.TID 0000.0001) saltAdvection = /* Salinity advection on/off flag */
(PID.TID 0000.0001)                   T
(PID.TID 0000.0001)     ;
(PID.TID 0000.0001) saltImplVertAdv = /* Sali. implicit vert. advection on/off */
(PID.TID 0000.0001)                   T
(PID.TID 0000.0001)     ;
(PID.TID 0000.0001) saltForcing  =  /* Salinity forcing on/off flag */
(PID.TID 0000.0001)                   T
(PID.TID 0000.0001)     ;
(PID.TID 0000.0001) balanceEmPmR =  /* balance net fresh-water flux on/off flag */
(PID.TID 0000.0001)                   F
(PID.TID 0000.0001)     ;
(PID.TID 0000.0001) doSaltClimRelax = /* apply SSS relaxation on/off flag */
(PID.TID 0000.0001)                   F
(PID.TID 0000.0001)     ;
(PID.TID 0000.0001) balanceSaltClimRelax= /* balance SSS relaxation on/off flag */
(PID.TID 0000.0001)                   T
(PID.TID 0000.0001)     ;
(PID.TID 0000.0001) saltIsActiveTr = /* Salt  is a dynamically Active Tracer */
(PID.TID 0000.0001)                   T
(PID.TID 0000.0001)     ;
(PID.TID 0000.0001)  readBinaryPrec = /* Precision used for reading binary files */
(PID.TID 0000.0001)                      32
(PID.TID 0000.0001)     ;
(PID.TID 0000.0001) writeBinaryPrec = /* Precision used for writing binary files */
(PID.TID 0000.0001)                      32
(PID.TID 0000.0001)     ;
(PID.TID 0000.0001)  rwSuffixType =   /* select format of mds file suffix */
(PID.TID 0000.0001)                       0
(PID.TID 0000.0001)    = 0 : myIter (I10.10) ;   = 1 : 100*myTime (100th sec) ;
(PID.TID 0000.0001)    = 2 : myTime (seconds);   = 3 : myTime/360 (10th of hr);
(PID.TID 0000.0001)    = 4 : myTime/3600 (hours)
(PID.TID 0000.0001)     ;
(PID.TID 0000.0001)  globalFiles = /* write "global" (=not per tile) files */
(PID.TID 0000.0001)                   F
(PID.TID 0000.0001)     ;
(PID.TID 0000.0001)  useSingleCpuIO = /* only master MPI process does I/O */
(PID.TID 0000.0001)                   T
(PID.TID 0000.0001)     ;
(PID.TID 0000.0001)  useSingleCpuInput = /* only master process reads input */
(PID.TID 0000.0001)                   T
(PID.TID 0000.0001)     ;
(PID.TID 0000.0001) /* debLev[*]  : level of debug & auxiliary message printing */
(PID.TID 0000.0001) debLevZero =  0 ; /* level of disabled aux. msg printing */
(PID.TID 0000.0001)    debLevA =  1 ; /* level of minimum  aux. msg printing */
(PID.TID 0000.0001)    debLevB =  2 ; /* level of low aux. print (report read-file opening)*/
(PID.TID 0000.0001)    debLevC =  3 ; /* level of moderate debug prt (most pkgs debug msg) */
(PID.TID 0000.0001)    debLevD =  4 ; /* level of enhanced debug prt (add DEBUG_STATS prt) */
(PID.TID 0000.0001)    debLevE =  5 ; /* level of extensive debug printing */
(PID.TID 0000.0001) debugLevel =  /* select debug printing level */
(PID.TID 0000.0001)                       2
(PID.TID 0000.0001)     ;
(PID.TID 0000.0001)  plotLevel =  /* select PLOT_FIELD printing level */
(PID.TID 0000.0001)                       2
(PID.TID 0000.0001)     ;
(PID.TID 0000.0001) //
(PID.TID 0000.0001) // Elliptic solver(s) paramters ( PARM02 in namelist )
(PID.TID 0000.0001) //
(PID.TID 0000.0001) cg2dMaxIters =   /* Upper limit on 2d con. grad iterations  */
(PID.TID 0000.0001)                     300
(PID.TID 0000.0001)     ;
(PID.TID 0000.0001) cg2dChkResFreq =   /* 2d con. grad convergence test frequency */
(PID.TID 0000.0001)                       1
(PID.TID 0000.0001)     ;
(PID.TID 0000.0001) cg2dUseMinResSol= /* use cg2d last-iter(=0) / min-resid.(=1) solution */
(PID.TID 0000.0001)                       0
(PID.TID 0000.0001)     ;
(PID.TID 0000.0001) cg2dTargetResidual =   /* 2d con. grad target residual  */
(PID.TID 0000.0001)                 1.000000000000000E-07
(PID.TID 0000.0001)     ;
(PID.TID 0000.0001) cg2dTargetResWunit =   /* CG2d target residual [W units] */
(PID.TID 0000.0001)                 1.000000000000000E-12
(PID.TID 0000.0001)     ;
(PID.TID 0000.0001) cg2dPreCondFreq =   /* Freq. for updating cg2d preconditioner */
(PID.TID 0000.0001)                       1
(PID.TID 0000.0001)     ;
(PID.TID 0000.0001) useSRCGSolver =  /* use single reduction CG solver(s) */
(PID.TID 0000.0001)                   F
(PID.TID 0000.0001)     ;
(PID.TID 0000.0001) printResidualFreq = /* Freq. for printing CG residual */
(PID.TID 0000.0001)                       0
(PID.TID 0000.0001)     ;
(PID.TID 0000.0001) //
(PID.TID 0000.0001) // Time stepping paramters ( PARM03 in namelist )
(PID.TID 0000.0001) //
(PID.TID 0000.0001) deltaTMom =   /* Momentum equation timestep ( s ) */
(PID.TID 0000.0001)                 9.000000000000000E+02
(PID.TID 0000.0001)     ;
(PID.TID 0000.0001) deltaTFreeSurf = /* FreeSurface equation timestep ( s ) */
(PID.TID 0000.0001)                 9.000000000000000E+02
(PID.TID 0000.0001)     ;
(PID.TID 0000.0001) dTtracerLev =  /* Tracer equation timestep ( s ) */
(PID.TID 0000.0001)    50 @  9.000000000000000E+02              /* K =  1: 50 */
(PID.TID 0000.0001)     ;
(PID.TID 0000.0001) deltaTClock  =   /* Model clock timestep ( s ) */
(PID.TID 0000.0001)                 9.000000000000000E+02
(PID.TID 0000.0001)     ;
(PID.TID 0000.0001) cAdjFreq =   /* Convective adjustment interval ( s ) */
(PID.TID 0000.0001)                 0.000000000000000E+00
(PID.TID 0000.0001)     ;
(PID.TID 0000.0001) momForcingOutAB = /* =1: take Momentum Forcing out of Adams-Bash. stepping */
(PID.TID 0000.0001)                       1
(PID.TID 0000.0001)     ;
(PID.TID 0000.0001) tracForcingOutAB = /* =1: take T,S,pTr Forcing out of Adams-Bash. stepping */
(PID.TID 0000.0001)                       1
(PID.TID 0000.0001)     ;
(PID.TID 0000.0001) momDissip_In_AB = /* put Dissipation Tendency in Adams-Bash. stepping */
(PID.TID 0000.0001)                   F
(PID.TID 0000.0001)     ;
(PID.TID 0000.0001) doAB_onGtGs = /* apply AB on Tendencies (rather than on T,S)*/
(PID.TID 0000.0001)                   T
(PID.TID 0000.0001)     ;
(PID.TID 0000.0001) abEps =   /* Adams-Bashforth-2 stabilizing weight */
(PID.TID 0000.0001)                 1.000000000000000E-01
(PID.TID 0000.0001)     ;
(PID.TID 0000.0001) applyExchUV_early = /* Apply EXCH to U,V earlier in time-step */
(PID.TID 0000.0001)                   F
(PID.TID 0000.0001)     ;
(PID.TID 0000.0001) pickupStrictlyMatch= /* stop if pickup do not strictly match */
(PID.TID 0000.0001)                   F
(PID.TID 0000.0001)     ;
(PID.TID 0000.0001) nIter0   =   /* Run starting timestep number */
(PID.TID 0000.0001)                       1
(PID.TID 0000.0001)     ;
(PID.TID 0000.0001) nTimeSteps = /* Number of timesteps */
(PID.TID 0000.0001)                    1440
(PID.TID 0000.0001)     ;
(PID.TID 0000.0001) nEndIter =   /* Run ending timestep number */
(PID.TID 0000.0001)                    1441
(PID.TID 0000.0001)     ;
(PID.TID 0000.0001) baseTime =   /* Model base time ( s ) */
(PID.TID 0000.0001)                 0.000000000000000E+00
(PID.TID 0000.0001)     ;
(PID.TID 0000.0001) startTime =  /* Run start time ( s ) */
(PID.TID 0000.0001)                 9.000000000000000E+02
(PID.TID 0000.0001)     ;
(PID.TID 0000.0001) endTime  =   /* Integration ending time ( s ) */
(PID.TID 0000.0001)                 1.296900000000000E+06
(PID.TID 0000.0001)     ;
(PID.TID 0000.0001) pChkPtFreq = /* Permanent restart/pickup file interval ( s ) */
(PID.TID 0000.0001)                 1.296000000000000E+06
(PID.TID 0000.0001)     ;
(PID.TID 0000.0001) chkPtFreq  = /* Rolling restart/pickup file interval ( s ) */
(PID.TID 0000.0001)                 1.296000000000000E+06
(PID.TID 0000.0001)     ;
(PID.TID 0000.0001) pickup_write_mdsio =   /* Model IO flag. */
(PID.TID 0000.0001)                   T
(PID.TID 0000.0001)     ;
(PID.TID 0000.0001) pickup_read_mdsio =   /* Model IO flag. */
(PID.TID 0000.0001)                   T
(PID.TID 0000.0001)     ;
(PID.TID 0000.0001) writePickupAtEnd =   /* Model IO flag. */
(PID.TID 0000.0001)                   T
(PID.TID 0000.0001)     ;
(PID.TID 0000.0001) dumpFreq =   /* Model state write out interval ( s ). */
(PID.TID 0000.0001)                 0.000000000000000E+00
(PID.TID 0000.0001)     ;
(PID.TID 0000.0001) dumpInitAndLast= /* write out Initial & Last iter. model state */
(PID.TID 0000.0001)                   T
(PID.TID 0000.0001)     ;
(PID.TID 0000.0001) snapshot_mdsio =   /* Model IO flag. */
(PID.TID 0000.0001)                   T
(PID.TID 0000.0001)     ;
(PID.TID 0000.0001) monitorFreq =   /* Monitor output interval ( s ). */
(PID.TID 0000.0001)                 7.200000000000000E+03
(PID.TID 0000.0001)     ;
(PID.TID 0000.0001) monitorSelect = /* select group of variables to monitor */
(PID.TID 0000.0001)                       3
(PID.TID 0000.0001)     ;
(PID.TID 0000.0001) monitor_stdio =   /* Model IO flag. */
(PID.TID 0000.0001)                   T
(PID.TID 0000.0001)     ;
(PID.TID 0000.0001) externForcingPeriod =   /* forcing period (s) */
(PID.TID 0000.0001)                 0.000000000000000E+00
(PID.TID 0000.0001)     ;
(PID.TID 0000.0001) externForcingCycle =   /* period of the cyle (s). */
(PID.TID 0000.0001)                 0.000000000000000E+00
(PID.TID 0000.0001)     ;
(PID.TID 0000.0001) tauThetaClimRelax =   /* relaxation time scale (s) */
(PID.TID 0000.0001)                 0.000000000000000E+00
(PID.TID 0000.0001)     ;
(PID.TID 0000.0001) tauSaltClimRelax =   /* relaxation time scale (s) */
(PID.TID 0000.0001)                 0.000000000000000E+00
(PID.TID 0000.0001)     ;
(PID.TID 0000.0001) latBandClimRelax =   /* max. Lat. where relaxation */
(PID.TID 0000.0001)                 1.800000000000000E+02
(PID.TID 0000.0001)     ;
(PID.TID 0000.0001) //
(PID.TID 0000.0001) // Gridding paramters ( PARM04 in namelist )
(PID.TID 0000.0001) //
(PID.TID 0000.0001) usingCartesianGrid = /* Cartesian coordinates flag ( True/False ) */
(PID.TID 0000.0001)                   F
(PID.TID 0000.0001)     ;
(PID.TID 0000.0001) usingCylindricalGrid = /* Cylindrical coordinates flag ( True/False ) */
(PID.TID 0000.0001)                   F
(PID.TID 0000.0001)     ;
(PID.TID 0000.0001) usingSphericalPolarGrid = /* Spherical coordinates flag ( True/False ) */
(PID.TID 0000.0001)                   F
(PID.TID 0000.0001)     ;
(PID.TID 0000.0001) usingCurvilinearGrid = /* Curvilinear coordinates flag ( True/False ) */
(PID.TID 0000.0001)                   T
(PID.TID 0000.0001)     ;
(PID.TID 0000.0001) useMin4hFacEdges = /* set hFacW,S as minimum of adjacent hFacC factor */
(PID.TID 0000.0001)                   F
(PID.TID 0000.0001)     ;
(PID.TID 0000.0001) interViscAr_pCell = /* account for partial-cell in interior vert. viscosity */
(PID.TID 0000.0001)                   F
(PID.TID 0000.0001)     ;
(PID.TID 0000.0001) interDiffKr_pCell = /* account for partial-cell in interior vert. diffusion */
(PID.TID 0000.0001)                   F
(PID.TID 0000.0001)     ;
(PID.TID 0000.0001) pCellMix_select = /* option to enhance mixing near surface & bottom */
(PID.TID 0000.0001)                       0
(PID.TID 0000.0001)     ;
(PID.TID 0000.0001) selectSigmaCoord = /* Hybrid-Sigma Vert. Coordinate option */
(PID.TID 0000.0001)                       0
(PID.TID 0000.0001)     ;
(PID.TID 0000.0001) rSigmaBnd = /* r/sigma transition ( units of r ==  m ) */
(PID.TID 0000.0001)                 1.234567000000000E+05
(PID.TID 0000.0001)     ;
(PID.TID 0000.0001) rkSign =   /* index orientation relative to vertical coordinate */
(PID.TID 0000.0001)                -1.000000000000000E+00
(PID.TID 0000.0001)     ;
(PID.TID 0000.0001) gravitySign = /* gravity orientation relative to vertical coordinate */
(PID.TID 0000.0001)                -1.000000000000000E+00
(PID.TID 0000.0001)     ;
(PID.TID 0000.0001) seaLev_Z =  /* reference height of sea-level [m] */
(PID.TID 0000.0001)                 0.000000000000000E+00
(PID.TID 0000.0001)     ;
(PID.TID 0000.0001) top_Pres =  /* reference pressure at the top [Pa] */
(PID.TID 0000.0001)                 0.000000000000000E+00
(PID.TID 0000.0001)     ;
(PID.TID 0000.0001) mass2rUnit = /* convert mass per unit area [kg/m2] to r-units [m] */
(PID.TID 0000.0001)                 9.718172983479105E-04
(PID.TID 0000.0001)     ;
(PID.TID 0000.0001) rUnit2mass = /* convert r-units [m] to mass per unit area [kg/m2] */
(PID.TID 0000.0001)                 1.029000000000000E+03
(PID.TID 0000.0001)     ;
(PID.TID 0000.0001) drC =   /* C spacing ( units of r ) */
(PID.TID 0000.0001)                 5.000000000000000E+00,      /* K =  1 */
(PID.TID 0000.0001)     6 @  1.000000000000000E+01,             /* K =  2:  7 */
(PID.TID 0000.0001)                 1.000500000000000E+01,      /* K =  8 */
(PID.TID 0000.0001)                 1.002000000000000E+01,      /* K =  9 */
(PID.TID 0000.0001)                 1.007000000000000E+01,      /* K = 10 */
(PID.TID 0000.0001)                 1.021500000000000E+01,      /* K = 11 */
(PID.TID 0000.0001)                 1.056000000000000E+01,      /* K = 12 */
(PID.TID 0000.0001)                 1.128000000000000E+01,      /* K = 13 */
(PID.TID 0000.0001)                 1.259000000000000E+01,      /* K = 14 */
(PID.TID 0000.0001)                 1.473000000000000E+01,      /* K = 15 */
(PID.TID 0000.0001)                 1.793000000000000E+01,      /* K = 16 */
(PID.TID 0000.0001)                 2.233500000000000E+01,      /* K = 17 */
(PID.TID 0000.0001)                 2.797500000000000E+01,      /* K = 18 */
(PID.TID 0000.0001)                 3.476000000000001E+01,      /* K = 19 */
(PID.TID 0000.0001)                 4.246000000000000E+01,      /* K = 20 */
(PID.TID 0000.0001)                 5.075000000000000E+01,      /* K = 21 */
(PID.TID 0000.0001)                 5.925000000000000E+01,      /* K = 22 */
(PID.TID 0000.0001)                 6.753999999999999E+01,      /* K = 23 */
(PID.TID 0000.0001)                 7.524000000000001E+01,      /* K = 24 */
(PID.TID 0000.0001)                 8.202500000000001E+01,      /* K = 25 */
(PID.TID 0000.0001)                 8.766500000000001E+01,      /* K = 26 */
(PID.TID 0000.0001)                 9.206999999999999E+01,      /* K = 27 */
(PID.TID 0000.0001)                 9.527000000000000E+01,      /* K = 28 */
(PID.TID 0000.0001)                 9.741499999999999E+01,      /* K = 29 */
(PID.TID 0000.0001)                 9.875000000000000E+01,      /* K = 30 */
(PID.TID 0000.0001)                 9.963000000000000E+01,      /* K = 31 */
(PID.TID 0000.0001)                 1.006700000000000E+02,      /* K = 32 */
(PID.TID 0000.0001)                 1.029450000000000E+02,      /* K = 33 */
(PID.TID 0000.0001)                 1.079450000000000E+02,      /* K = 34 */
(PID.TID 0000.0001)                 1.170800000000000E+02,      /* K = 35 */
(PID.TID 0000.0001)                 1.309600000000000E+02,      /* K = 36 */
(PID.TID 0000.0001)                 1.490150000000000E+02,      /* K = 37 */
(PID.TID 0000.0001)                 1.698850000000000E+02,      /* K = 38 */
(PID.TID 0000.0001)                 1.921900000000000E+02,      /* K = 39 */
(PID.TID 0000.0001)                 2.150250000000000E+02,      /* K = 40 */
(PID.TID 0000.0001)                 2.380000000000000E+02,      /* K = 41 */
(PID.TID 0000.0001)                 2.610000000000000E+02,      /* K = 42 */
(PID.TID 0000.0001)                 2.840000000000000E+02,      /* K = 43 */
(PID.TID 0000.0001)                 3.070000000000000E+02,      /* K = 44 */
(PID.TID 0000.0001)                 3.300000000000000E+02,      /* K = 45 */
(PID.TID 0000.0001)                 3.530000000000000E+02,      /* K = 46 */
(PID.TID 0000.0001)                 3.760000000000000E+02,      /* K = 47 */
(PID.TID 0000.0001)                 3.990000000000000E+02,      /* K = 48 */
(PID.TID 0000.0001)                 4.220000000000000E+02,      /* K = 49 */
(PID.TID 0000.0001)                 4.450000000000000E+02,      /* K = 50 */
(PID.TID 0000.0001)                 2.282500000000000E+02       /* K = 51 */
(PID.TID 0000.0001)     ;
(PID.TID 0000.0001) drF =   /* W spacing ( units of r ) */
(PID.TID 0000.0001)     7 @  1.000000000000000E+01,             /* K =  1:  7 */
(PID.TID 0000.0001)                 1.001000000000000E+01,      /* K =  8 */
(PID.TID 0000.0001)                 1.003000000000000E+01,      /* K =  9 */
(PID.TID 0000.0001)                 1.011000000000000E+01,      /* K = 10 */
(PID.TID 0000.0001)                 1.032000000000000E+01,      /* K = 11 */
(PID.TID 0000.0001)                 1.080000000000000E+01,      /* K = 12 */
(PID.TID 0000.0001)                 1.176000000000000E+01,      /* K = 13 */
(PID.TID 0000.0001)                 1.342000000000000E+01,      /* K = 14 */
(PID.TID 0000.0001)                 1.604000000000000E+01,      /* K = 15 */
(PID.TID 0000.0001)                 1.982000000000000E+01,      /* K = 16 */
(PID.TID 0000.0001)                 2.485000000000000E+01,      /* K = 17 */
(PID.TID 0000.0001)                 3.110000000000000E+01,      /* K = 18 */
(PID.TID 0000.0001)                 3.842000000000000E+01,      /* K = 19 */
(PID.TID 0000.0001)                 4.650000000000000E+01,      /* K = 20 */
(PID.TID 0000.0001)                 5.500000000000000E+01,      /* K = 21 */
(PID.TID 0000.0001)                 6.350000000000000E+01,      /* K = 22 */
(PID.TID 0000.0001)                 7.158000000000000E+01,      /* K = 23 */
(PID.TID 0000.0001)                 7.890000000000001E+01,      /* K = 24 */
(PID.TID 0000.0001)                 8.515000000000001E+01,      /* K = 25 */
(PID.TID 0000.0001)                 9.018000000000001E+01,      /* K = 26 */
(PID.TID 0000.0001)                 9.395999999999999E+01,      /* K = 27 */
(PID.TID 0000.0001)                 9.658000000000000E+01,      /* K = 28 */
(PID.TID 0000.0001)                 9.825000000000000E+01,      /* K = 29 */
(PID.TID 0000.0001)                 9.925000000000000E+01,      /* K = 30 */
(PID.TID 0000.0001)                 1.000100000000000E+02,      /* K = 31 */
(PID.TID 0000.0001)                 1.013300000000000E+02,      /* K = 32 */
(PID.TID 0000.0001)                 1.045600000000000E+02,      /* K = 33 */
(PID.TID 0000.0001)                 1.113300000000000E+02,      /* K = 34 */
(PID.TID 0000.0001)                 1.228300000000000E+02,      /* K = 35 */
(PID.TID 0000.0001)                 1.390900000000000E+02,      /* K = 36 */
(PID.TID 0000.0001)                 1.589400000000000E+02,      /* K = 37 */
(PID.TID 0000.0001)                 1.808300000000000E+02,      /* K = 38 */
(PID.TID 0000.0001)                 2.035500000000000E+02,      /* K = 39 */
(PID.TID 0000.0001)                 2.265000000000000E+02,      /* K = 40 */
(PID.TID 0000.0001)                 2.495000000000000E+02,      /* K = 41 */
(PID.TID 0000.0001)                 2.725000000000000E+02,      /* K = 42 */
(PID.TID 0000.0001)                 2.955000000000000E+02,      /* K = 43 */
(PID.TID 0000.0001)                 3.185000000000000E+02,      /* K = 44 */
(PID.TID 0000.0001)                 3.415000000000000E+02,      /* K = 45 */
(PID.TID 0000.0001)                 3.645000000000000E+02,      /* K = 46 */
(PID.TID 0000.0001)                 3.875000000000000E+02,      /* K = 47 */
(PID.TID 0000.0001)                 4.105000000000000E+02,      /* K = 48 */
(PID.TID 0000.0001)                 4.335000000000000E+02,      /* K = 49 */
(PID.TID 0000.0001)                 4.565000000000000E+02       /* K = 50 */
(PID.TID 0000.0001)     ;
(PID.TID 0000.0001) radius_fromHorizGrid = /* sphere Radius of input horiz. grid */
(PID.TID 0000.0001)                 6.370000000000000E+06
(PID.TID 0000.0001)     ;
(PID.TID 0000.0001) rSphere =  /* Radius ( ignored - cartesian, m - spherical ) */
(PID.TID 0000.0001)                 6.370000000000000E+06
(PID.TID 0000.0001)     ;
(PID.TID 0000.0001) deepAtmosphere = /* Deep/Shallow Atmosphere flag (True/False) */
(PID.TID 0000.0001)                   F
(PID.TID 0000.0001)     ;
(PID.TID 0000.0001) xC =  /* xC(:,1,:,1) : P-point X coord ( deg. or m if cartesian) */
(PID.TID 0000.0001)                -4.081468768806280E+01,      /* I =  1 */
(PID.TID 0000.0001)                -3.957104986057077E+01,      /* I =  2 */
(PID.TID 0000.0001)                -3.832217028656162E+01,      /* I =  3 */
(PID.TID 0000.0001)                -3.706844413107324E+01,      /* I =  4 */
(PID.TID 0000.0001)                -3.581028225779612E+01,      /* I =  5 */
(PID.TID 0000.0001)                -3.454811012006861E+01,      /* I =  6 */
(PID.TID 0000.0001)                -3.328236654497336E+01,      /* I =  7 */
(PID.TID 0000.0001)                -3.201350241727823E+01,      /* I =  8 */
(PID.TID 0000.0001)                -3.074197927113779E+01,      /* I =  9 */
(PID.TID 0000.0001)                -2.946826779826338E+01,      /* I = 10 */
(PID.TID 0000.0001)                -2.819284628214859E+01,      /* I = 11 */
(PID.TID 0000.0001)                -2.691619896217756E+01,      /* I = 12 */
(PID.TID 0000.0001)                -2.563881425705264E+01,      /* I = 13 */
(PID.TID 0000.0001)                -2.436118574294736E+01,      /* I = 14 */
(PID.TID 0000.0001)                -2.308380103782244E+01,      /* I = 15 */
(PID.TID 0000.0001)                -2.180715371785141E+01,      /* I = 16 */
(PID.TID 0000.0001)                -2.053173220173662E+01,      /* I = 17 */
(PID.TID 0000.0001)                -1.925802072886221E+01,      /* I = 18 */
(PID.TID 0000.0001)                -1.798649758272177E+01,      /* I = 19 */
(PID.TID 0000.0001)                -1.671763345502664E+01,      /* I = 20 */
(PID.TID 0000.0001)                -1.545188987993139E+01,      /* I = 21 */
(PID.TID 0000.0001)                -1.418971774220388E+01,      /* I = 22 */
(PID.TID 0000.0001)                -1.293155586892676E+01,      /* I = 23 */
(PID.TID 0000.0001)                -1.167782971343838E+01,      /* I = 24 */
(PID.TID 0000.0001)                -1.042895013942923E+01,      /* I = 25 */
(PID.TID 0000.0001)                -9.185312311937196E+00,      /* I = 26 */
(PID.TID 0000.0001)                -7.947294700425999E+00,      /* I = 27 */
(PID.TID 0000.0001)                -6.715258197621779E+00,      /* I = 28 */
(PID.TID 0000.0001)                -5.489545357070952E+00,      /* I = 29 */
(PID.TID 0000.0001)                -4.270479749729759E+00       /* I = 30 */
(PID.TID 0000.0001)     ;
(PID.TID 0000.0001) yC =  /* yC(1,:,1,:) : P-point Y coord ( deg. or m if cartesian) */
(PID.TID 0000.0001)                -8.146222940368236E+01,      /* J =  1 */
(PID.TID 0000.0001)                -8.113083815286421E+01,      /* J =  2 */
(PID.TID 0000.0001)                -8.079504828233755E+01,      /* J =  3 */
(PID.TID 0000.0001)                -8.045491317322768E+01,      /* J =  4 */
(PID.TID 0000.0001)                -8.011048280590389E+01,      /* J =  5 */
(PID.TID 0000.0001)                -7.976180430515704E+01,      /* J =  6 */
(PID.TID 0000.0001)                -7.940892240526760E+01,      /* J =  7 */
(PID.TID 0000.0001)                -7.905187984845006E+01,      /* J =  8 */
(PID.TID 0000.0001)                -7.869071772754813E+01,      /* J =  9 */
(PID.TID 0000.0001)                -7.832547578199167E+01,      /* J = 10 */
(PID.TID 0000.0001)                -7.795619265432416E+01,      /* J = 11 */
(PID.TID 0000.0001)                -7.758290611340497E+01,      /* J = 12 */
(PID.TID 0000.0001)                -7.720565324926896E+01,      /* J = 13 */
(PID.TID 0000.0001)                -7.682447064385434E+01,      /* J = 14 */
(PID.TID 0000.0001)                -7.643939452107085E+01,      /* J = 15 */
(PID.TID 0000.0001)                -7.605046087901695E+01,      /* J = 16 */
(PID.TID 0000.0001)                -7.565770560699295E+01,      /* J = 17 */
(PID.TID 0000.0001)                -7.526116458910658E+01,      /* J = 18 */
(PID.TID 0000.0001)                -7.486087379640449E+01,      /* J = 19 */
(PID.TID 0000.0001)                -7.445686936886233E+01,      /* J = 20 */
(PID.TID 0000.0001)                -7.404918768854837E+01,      /* J = 21 */
(PID.TID 0000.0001)                -7.363786544493549E+01,      /* J = 22 */
(PID.TID 0000.0001)                -7.322293969328220E+01,      /* J = 23 */
(PID.TID 0000.0001)                -7.280444790682334E+01,      /* J = 24 */
(PID.TID 0000.0001)                -7.238242802328044E+01,      /* J = 25 */
(PID.TID 0000.0001)                -7.195691848614972E+01,      /* J = 26 */
(PID.TID 0000.0001)                -7.152795828082729E+01,      /* J = 27 */
(PID.TID 0000.0001)                -7.109558696482472E+01,      /* J = 28 */
(PID.TID 0000.0001)                -7.065984468855757E+01,      /* J = 29 */
(PID.TID 0000.0001)                -7.022077218177122E+01       /* J = 30 */
(PID.TID 0000.0001)     ;
(PID.TID 0000.0001) rcoord = /* P-point R coordinate (  units of r ) */
(PID.TID 0000.0001)                -5.000000000000000E+00,      /* K =  1 */
(PID.TID 0000.0001)                -1.500000000000000E+01,      /* K =  2 */
(PID.TID 0000.0001)                -2.500000000000000E+01,      /* K =  3 */
(PID.TID 0000.0001)                -3.500000000000000E+01,      /* K =  4 */
(PID.TID 0000.0001)                -4.500000000000000E+01,      /* K =  5 */
(PID.TID 0000.0001)                -5.500000000000000E+01,      /* K =  6 */
(PID.TID 0000.0001)                -6.500000000000000E+01,      /* K =  7 */
(PID.TID 0000.0001)                -7.500500000000000E+01,      /* K =  8 */
(PID.TID 0000.0001)                -8.502499999999999E+01,      /* K =  9 */
(PID.TID 0000.0001)                -9.509500000000000E+01,      /* K = 10 */
(PID.TID 0000.0001)                -1.053100000000000E+02,      /* K = 11 */
(PID.TID 0000.0001)                -1.158700000000000E+02,      /* K = 12 */
(PID.TID 0000.0001)                -1.271500000000000E+02,      /* K = 13 */
(PID.TID 0000.0001)                -1.397400000000000E+02,      /* K = 14 */
(PID.TID 0000.0001)                -1.544700000000000E+02,      /* K = 15 */
(PID.TID 0000.0001)                -1.724000000000000E+02,      /* K = 16 */
(PID.TID 0000.0001)                -1.947350000000000E+02,      /* K = 17 */
(PID.TID 0000.0001)                -2.227100000000000E+02,      /* K = 18 */
(PID.TID 0000.0001)                -2.574700000000000E+02,      /* K = 19 */
(PID.TID 0000.0001)                -2.999300000000000E+02,      /* K = 20 */
(PID.TID 0000.0001)                -3.506800000000000E+02,      /* K = 21 */
(PID.TID 0000.0001)                -4.099300000000000E+02,      /* K = 22 */
(PID.TID 0000.0001)                -4.774700000000000E+02,      /* K = 23 */
(PID.TID 0000.0001)                -5.527100000000000E+02,      /* K = 24 */
(PID.TID 0000.0001)                -6.347350000000000E+02,      /* K = 25 */
(PID.TID 0000.0001)                -7.224000000000000E+02,      /* K = 26 */
(PID.TID 0000.0001)                -8.144700000000000E+02,      /* K = 27 */
(PID.TID 0000.0001)                -9.097400000000000E+02,      /* K = 28 */
(PID.TID 0000.0001)                -1.007155000000000E+03,      /* K = 29 */
(PID.TID 0000.0001)                -1.105905000000000E+03,      /* K = 30 */
(PID.TID 0000.0001)                -1.205535000000000E+03,      /* K = 31 */
(PID.TID 0000.0001)                -1.306205000000000E+03,      /* K = 32 */
(PID.TID 0000.0001)                -1.409150000000000E+03,      /* K = 33 */
(PID.TID 0000.0001)                -1.517095000000000E+03,      /* K = 34 */
(PID.TID 0000.0001)                -1.634175000000000E+03,      /* K = 35 */
(PID.TID 0000.0001)                -1.765135000000000E+03,      /* K = 36 */
(PID.TID 0000.0001)                -1.914150000000000E+03,      /* K = 37 */
(PID.TID 0000.0001)                -2.084035000000000E+03,      /* K = 38 */
(PID.TID 0000.0001)                -2.276225000000000E+03,      /* K = 39 */
(PID.TID 0000.0001)                -2.491250000000000E+03,      /* K = 40 */
(PID.TID 0000.0001)                -2.729250000000000E+03,      /* K = 41 */
(PID.TID 0000.0001)                -2.990250000000000E+03,      /* K = 42 */
(PID.TID 0000.0001)                -3.274250000000000E+03,      /* K = 43 */
(PID.TID 0000.0001)                -3.581250000000000E+03,      /* K = 44 */
(PID.TID 0000.0001)                -3.911250000000000E+03,      /* K = 45 */
(PID.TID 0000.0001)                -4.264250000000000E+03,      /* K = 46 */
(PID.TID 0000.0001)                -4.640250000000000E+03,      /* K = 47 */
(PID.TID 0000.0001)                -5.039250000000000E+03,      /* K = 48 */
(PID.TID 0000.0001)                -5.461250000000000E+03,      /* K = 49 */
(PID.TID 0000.0001)                -5.906250000000000E+03       /* K = 50 */
(PID.TID 0000.0001)     ;
(PID.TID 0000.0001) rF =   /* W-Interf. R coordinate (  units of r ) */
(PID.TID 0000.0001)                 0.000000000000000E+00,      /* K =  1 */
(PID.TID 0000.0001)                -1.000000000000000E+01,      /* K =  2 */
(PID.TID 0000.0001)                -2.000000000000000E+01,      /* K =  3 */
(PID.TID 0000.0001)                -3.000000000000000E+01,      /* K =  4 */
(PID.TID 0000.0001)                -4.000000000000000E+01,      /* K =  5 */
(PID.TID 0000.0001)                -5.000000000000000E+01,      /* K =  6 */
(PID.TID 0000.0001)                -6.000000000000000E+01,      /* K =  7 */
(PID.TID 0000.0001)                -7.000000000000000E+01,      /* K =  8 */
(PID.TID 0000.0001)                -8.001000000000001E+01,      /* K =  9 */
(PID.TID 0000.0001)                -9.004000000000001E+01,      /* K = 10 */
(PID.TID 0000.0001)                -1.001500000000000E+02,      /* K = 11 */
(PID.TID 0000.0001)                -1.104700000000000E+02,      /* K = 12 */
(PID.TID 0000.0001)                -1.212700000000000E+02,      /* K = 13 */
(PID.TID 0000.0001)                -1.330300000000000E+02,      /* K = 14 */
(PID.TID 0000.0001)                -1.464500000000000E+02,      /* K = 15 */
(PID.TID 0000.0001)                -1.624900000000000E+02,      /* K = 16 */
(PID.TID 0000.0001)                -1.823100000000000E+02,      /* K = 17 */
(PID.TID 0000.0001)                -2.071600000000000E+02,      /* K = 18 */
(PID.TID 0000.0001)                -2.382600000000000E+02,      /* K = 19 */
(PID.TID 0000.0001)                -2.766799999999999E+02,      /* K = 20 */
(PID.TID 0000.0001)                -3.231799999999999E+02,      /* K = 21 */
(PID.TID 0000.0001)                -3.781799999999999E+02,      /* K = 22 */
(PID.TID 0000.0001)                -4.416799999999999E+02,      /* K = 23 */
(PID.TID 0000.0001)                -5.132600000000000E+02,      /* K = 24 */
(PID.TID 0000.0001)                -5.921600000000000E+02,      /* K = 25 */
(PID.TID 0000.0001)                -6.773099999999999E+02,      /* K = 26 */
(PID.TID 0000.0001)                -7.674900000000000E+02,      /* K = 27 */
(PID.TID 0000.0001)                -8.614500000000000E+02,      /* K = 28 */
(PID.TID 0000.0001)                -9.580300000000001E+02,      /* K = 29 */
(PID.TID 0000.0001)                -1.056280000000000E+03,      /* K = 30 */
(PID.TID 0000.0001)                -1.155530000000000E+03,      /* K = 31 */
(PID.TID 0000.0001)                -1.255540000000000E+03,      /* K = 32 */
(PID.TID 0000.0001)                -1.356870000000000E+03,      /* K = 33 */
(PID.TID 0000.0001)                -1.461430000000000E+03,      /* K = 34 */
(PID.TID 0000.0001)                -1.572760000000000E+03,      /* K = 35 */
(PID.TID 0000.0001)                -1.695590000000000E+03,      /* K = 36 */
(PID.TID 0000.0001)                -1.834680000000000E+03,      /* K = 37 */
(PID.TID 0000.0001)                -1.993620000000000E+03,      /* K = 38 */
(PID.TID 0000.0001)                -2.174450000000000E+03,      /* K = 39 */
(PID.TID 0000.0001)                -2.378000000000000E+03,      /* K = 40 */
(PID.TID 0000.0001)                -2.604500000000000E+03,      /* K = 41 */
(PID.TID 0000.0001)                -2.854000000000000E+03,      /* K = 42 */
(PID.TID 0000.0001)                -3.126500000000000E+03,      /* K = 43 */
(PID.TID 0000.0001)                -3.422000000000000E+03,      /* K = 44 */
(PID.TID 0000.0001)                -3.740500000000000E+03,      /* K = 45 */
(PID.TID 0000.0001)                -4.082000000000000E+03,      /* K = 46 */
(PID.TID 0000.0001)                -4.446500000000000E+03,      /* K = 47 */
(PID.TID 0000.0001)                -4.834000000000000E+03,      /* K = 48 */
(PID.TID 0000.0001)                -5.244500000000000E+03,      /* K = 49 */
(PID.TID 0000.0001)                -5.678000000000000E+03,      /* K = 50 */
(PID.TID 0000.0001)                -6.134500000000000E+03       /* K = 51 */
(PID.TID 0000.0001)     ;
(PID.TID 0000.0001) deepFacC = /* deep-model grid factor @ cell-Center (-) */
(PID.TID 0000.0001)    50 @  1.000000000000000E+00              /* K =  1: 50 */
(PID.TID 0000.0001)     ;
(PID.TID 0000.0001) deepFacF = /* deep-model grid factor @ W-Interface (-) */
(PID.TID 0000.0001)    51 @  1.000000000000000E+00              /* K =  1: 51 */
(PID.TID 0000.0001)     ;
(PID.TID 0000.0001) rVel2wUnit = /* convert units: rVel -> wSpeed (=1 if z-coord)*/
(PID.TID 0000.0001)    51 @  1.000000000000000E+00              /* K =  1: 51 */
(PID.TID 0000.0001)     ;
(PID.TID 0000.0001) wUnit2rVel = /* convert units: wSpeed -> rVel (=1 if z-coord)*/
(PID.TID 0000.0001)    51 @  1.000000000000000E+00              /* K =  1: 51 */
(PID.TID 0000.0001)     ;
(PID.TID 0000.0001) dBdrRef = /* Vertical grad. of reference buoyancy [(m/s/r)^2] */
(PID.TID 0000.0001)     3 @  0.000000000000000E+00,             /* K =  1:  3 */
(PID.TID 0000.0001)                 2.706065538651213E-04,      /* K =  4 */
(PID.TID 0000.0001)     2 @  0.000000000000000E+00,             /* K =  5:  6 */
(PID.TID 0000.0001)                 2.632794562663490E-04,      /* K =  7 */
(PID.TID 0000.0001)                 2.554318021231947E-04,      /* K =  8 */
(PID.TID 0000.0001)                 0.000000000000000E+00,      /* K =  9 */
(PID.TID 0000.0001)                 2.461524232360561E-04,      /* K = 10 */
(PID.TID 0000.0001)                 2.348694431245364E-04,      /* K = 11 */
(PID.TID 0000.0001)                 0.000000000000000E+00,      /* K = 12 */
(PID.TID 0000.0001)                 2.056847859884566E-04,      /* K = 13 */
(PID.TID 0000.0001)                 1.777764506003336E-04,      /* K = 14 */
(PID.TID 0000.0001)                 0.000000000000000E+00,      /* K = 15 */
(PID.TID 0000.0001)                 1.203533867077665E-04,      /* K = 16 */
(PID.TID 0000.0001)                 9.288540355629585E-05,      /* K = 17 */
(PID.TID 0000.0001)                 7.115862770365155E-05,      /* K = 18 */
(PID.TID 0000.0001)                 5.484365820533800E-05,      /* K = 19 */
(PID.TID 0000.0001)                 4.290935507113214E-05,      /* K = 20 */
(PID.TID 0000.0001)                 6.658747741703880E-05,      /* K = 21 */
(PID.TID 0000.0001)                 0.000000000000000E+00,      /* K = 22 */
(PID.TID 0000.0001)                 2.323718420342036E-05,      /* K = 23 */
(PID.TID 0000.0001)                 1.974682037962757E-05,      /* K = 24 */
(PID.TID 0000.0001)                 1.709468932536602E-05,      /* K = 25 */
(PID.TID 0000.0001)                 0.000000000000000E+00,      /* K = 26 */
(PID.TID 0000.0001)                 1.455436545977052E-05,      /* K = 27 */
(PID.TID 0000.0001)                 0.000000000000000E+00,      /* K = 28 */
(PID.TID 0000.0001)                 1.315287111980149E-05,      /* K = 29 */
(PID.TID 0000.0001)     2 @  0.000000000000000E+00,             /* K = 30: 31 */
(PID.TID 0000.0001)                 1.240968507885233E-05,      /* K = 32 */
(PID.TID 0000.0001)     2 @  0.000000000000000E+00,             /* K = 33: 34 */
(PID.TID 0000.0001)                 1.045141607964570E-05,      /* K = 35 */
(PID.TID 0000.0001)     3 @  0.000000000000000E+00,             /* K = 36: 38 */
(PID.TID 0000.0001)                 6.628797113709505E-06,      /* K = 39 */
(PID.TID 0000.0001)    11 @  0.000000000000000E+00              /* K = 40: 50 */
(PID.TID 0000.0001)     ;
(PID.TID 0000.0001) rotateGrid = /* use rotated grid ( True/False ) */
(PID.TID 0000.0001)                   F
(PID.TID 0000.0001)     ;
(PID.TID 0000.0001) phiEuler = /* Euler angle, rotation about original z-coordinate [rad] */
(PID.TID 0000.0001)                 0.000000000000000E+00
(PID.TID 0000.0001)     ;
(PID.TID 0000.0001) thetaEuler = /* Euler angle, rotation about new x-coordinate [rad] */
(PID.TID 0000.0001)                 0.000000000000000E+00
(PID.TID 0000.0001)     ;
(PID.TID 0000.0001) psiEuler = /* Euler angle, rotation about new z-coordinate [rad] */
(PID.TID 0000.0001)                 0.000000000000000E+00
(PID.TID 0000.0001)     ;
(PID.TID 0000.0001) dxF =  /* dxF(:,1,:,1) ( units: m ) */
(PID.TID 0000.0001)                 2.071152825743187E+04,      /* I =  1 */
(PID.TID 0000.0001)                 2.070365142756831E+04,      /* I =  2 */
(PID.TID 0000.0001)                 2.069635296570141E+04,      /* I =  3 */
(PID.TID 0000.0001)                 2.068965358413176E+04,      /* I =  4 */
(PID.TID 0000.0001)                 2.068357195583360E+04,      /* I =  5 */
(PID.TID 0000.0001)                 2.067812475356784E+04,      /* I =  6 */
(PID.TID 0000.0001)                 2.067332670125947E+04,      /* I =  7 */
(PID.TID 0000.0001)                 2.066919060389092E+04,      /* I =  8 */
(PID.TID 0000.0001)                 2.066572738985245E+04,      /* I =  9 */
(PID.TID 0000.0001)                 2.066294615597989E+04,      /* I = 10 */
(PID.TID 0000.0001)                 2.066085425372315E+04,      /* I = 11 */
(PID.TID 0000.0001)                 2.065945771525925E+04,      /* I = 12 */
(PID.TID 0000.0001)                 2.065874381268158E+04,      /* I = 13 */
(PID.TID 0000.0001)                 2.065874381268158E+04,      /* I = 14 */
(PID.TID 0000.0001)                 2.065945771525925E+04,      /* I = 15 */
(PID.TID 0000.0001)                 2.066085425372316E+04,      /* I = 16 */
(PID.TID 0000.0001)                 2.066294615597989E+04,      /* I = 17 */
(PID.TID 0000.0001)                 2.066572738985245E+04,      /* I = 18 */
(PID.TID 0000.0001)                 2.066919060389088E+04,      /* I = 19 */
(PID.TID 0000.0001)                 2.067332670125956E+04,      /* I = 20 */
(PID.TID 0000.0001)                 2.067812475356780E+04,      /* I = 21 */
(PID.TID 0000.0001)                 2.068357195583360E+04,      /* I = 22 */
(PID.TID 0000.0001)                 2.068965358413182E+04,      /* I = 23 */
(PID.TID 0000.0001)                 2.069635296570133E+04,      /* I = 24 */
(PID.TID 0000.0001)                 2.070365142756836E+04,      /* I = 25 */
(PID.TID 0000.0001)                 2.071152825743182E+04,      /* I = 26 */
(PID.TID 0000.0001)                 2.071996065138743E+04,      /* I = 27 */
(PID.TID 0000.0001)                 2.072892365863983E+04,      /* I = 28 */
(PID.TID 0000.0001)                 2.073839012765668E+04,      /* I = 29 */
(PID.TID 0000.0001)                 2.074833063718403E+04       /* I = 30 */
(PID.TID 0000.0001)     ;
(PID.TID 0000.0001) dxF =  /* dxF(1,:,1,:) ( units: m ) */
(PID.TID 0000.0001)                 2.071152825743187E+04,      /* J =  1 */
(PID.TID 0000.0001)                 2.109117491456033E+04,      /* J =  2 */
(PID.TID 0000.0001)                 2.148525648961724E+04,      /* J =  3 */
(PID.TID 0000.0001)                 2.189377348588603E+04,      /* J =  4 */
(PID.TID 0000.0001)                 2.231672440915243E+04,      /* J =  5 */
(PID.TID 0000.0001)                 2.275410689480659E+04,      /* J =  6 */
(PID.TID 0000.0001)                 2.320591873318126E+04,      /* J =  7 */
(PID.TID 0000.0001)                 2.367215879054831E+04,      /* J =  8 */
(PID.TID 0000.0001)                 2.415282782538908E+04,      /* J =  9 */
(PID.TID 0000.0001)                 2.464792920101809E+04,      /* J = 10 */
(PID.TID 0000.0001)                 2.515746949702995E+04,      /* J = 11 */
(PID.TID 0000.0001)                 2.568145902315334E+04,      /* J = 12 */
(PID.TID 0000.0001)                 2.621991223981432E+04,      /* J = 13 */
(PID.TID 0000.0001)                 2.677284809033052E+04,      /* J = 14 */
(PID.TID 0000.0001)                 2.734029025013979E+04,      /* J = 15 */
(PID.TID 0000.0001)                 2.792226729855568E+04,      /* J = 16 */
(PID.TID 0000.0001)                 2.851881281852892E+04,      /* J = 17 */
(PID.TID 0000.0001)                 2.912996543046302E+04,      /* J = 18 */
(PID.TID 0000.0001)                 2.975576876502299E+04,      /* J = 19 */
(PID.TID 0000.0001)                 3.039627138062681E+04,      /* J = 20 */
(PID.TID 0000.0001)                 3.105152663065675E+04,      /* J = 21 */
(PID.TID 0000.0001)                 3.172159248542454E+04,      /* J = 22 */
(PID.TID 0000.0001)                 3.240653131349731E+04,      /* J = 23 */
(PID.TID 0000.0001)                 3.310640962675057E+04,      /* J = 24 */
(PID.TID 0000.0001)                 3.382129779388320E+04,      /* J = 25 */
(PID.TID 0000.0001)                 3.455126972555294E+04,      /* J = 26 */
(PID.TID 0000.0001)                 3.529640253603521E+04,      /* J = 27 */
(PID.TID 0000.0001)                 3.605677618612848E+04,      /* J = 28 */
(PID.TID 0000.0001)                 3.683247311866502E+04,      /* J = 29 */
(PID.TID 0000.0001)                 3.762357793548112E+04       /* J = 30 */
(PID.TID 0000.0001)     ;
(PID.TID 0000.0001) dyF =  /* dyF(:,1,:,1) ( units: m ) */
(PID.TID 0000.0001)                 3.700742300337598E+04,      /* I =  1 */
(PID.TID 0000.0001)                 3.707905556394973E+04,      /* I =  2 */
(PID.TID 0000.0001)                 3.714471828319018E+04,      /* I =  3 */
(PID.TID 0000.0001)                 3.720441078960103E+04,      /* I =  4 */
(PID.TID 0000.0001)                 3.725813297080282E+04,      /* I =  5 */
(PID.TID 0000.0001)                 3.730588490725751E+04,      /* I =  6 */
(PID.TID 0000.0001)                 3.734766681359038E+04,      /* I =  7 */
(PID.TID 0000.0001)                 3.738347898712025E+04,      /* I =  8 */
(PID.TID 0000.0001)                 3.741332176340629E+04,      /* I =  9 */
(PID.TID 0000.0001)                 3.743719547859261E+04,      /* I = 10 */
(PID.TID 0000.0001)                 3.745510043824806E+04,      /* I = 11 */
(PID.TID 0000.0001)                 3.746703689267323E+04,      /* I = 12 */
(PID.TID 0000.0001)     2 @  3.747300501832417E+04,             /* I = 13: 14 */
(PID.TID 0000.0001)                 3.746703689267323E+04,      /* I = 15 */
(PID.TID 0000.0001)                 3.745510043824806E+04,      /* I = 16 */
(PID.TID 0000.0001)                 3.743719547859261E+04,      /* I = 17 */
(PID.TID 0000.0001)                 3.741332176340628E+04,      /* I = 18 */
(PID.TID 0000.0001)                 3.738347898712024E+04,      /* I = 19 */
(PID.TID 0000.0001)                 3.734766681359040E+04,      /* I = 20 */
(PID.TID 0000.0001)                 3.730588490725750E+04,      /* I = 21 */
(PID.TID 0000.0001)                 3.725813297080281E+04,      /* I = 22 */
(PID.TID 0000.0001)                 3.720441078960103E+04,      /* I = 23 */
(PID.TID 0000.0001)                 3.714471828319017E+04,      /* I = 24 */
(PID.TID 0000.0001)                 3.707905556394973E+04,      /* I = 25 */
(PID.TID 0000.0001)                 3.700742300337599E+04,      /* I = 26 */
(PID.TID 0000.0001)                 3.692982130617692E+04,      /* I = 27 */
(PID.TID 0000.0001)                 3.684625159269555E+04,      /* I = 28 */
(PID.TID 0000.0001)                 3.675671548992459E+04,      /* I = 29 */
(PID.TID 0000.0001)                 3.666121523181524E+04       /* I = 30 */
(PID.TID 0000.0001)     ;
(PID.TID 0000.0001) dyF =  /* dyF(1,:,1,:) ( units: m ) */
(PID.TID 0000.0001)                 3.700742300337598E+04,      /* J =  1 */
(PID.TID 0000.0001)                 3.745555642044499E+04,      /* J =  2 */
(PID.TID 0000.0001)                 3.790206217653974E+04,      /* J =  3 */
(PID.TID 0000.0001)                 3.834684105117956E+04,      /* J =  4 */
(PID.TID 0000.0001)                 3.878979459357282E+04,      /* J =  5 */
(PID.TID 0000.0001)                 3.923082521328924E+04,      /* J =  6 */
(PID.TID 0000.0001)                 3.966983623246408E+04,      /* J =  7 */
(PID.TID 0000.0001)                 4.010673190475840E+04,      /* J =  8 */
(PID.TID 0000.0001)                 4.054141740950450E+04,      /* J =  9 */
(PID.TID 0000.0001)                 4.097379882434454E+04,      /* J = 10 */
(PID.TID 0000.0001)                 4.140378308084428E+04,      /* J = 11 */
(PID.TID 0000.0001)                 4.183127790875583E+04,      /* J = 12 */
(PID.TID 0000.0001)                 4.225619177206317E+04,      /* J = 13 */
(PID.TID 0000.0001)                 4.267843379867976E+04,      /* J = 14 */
(PID.TID 0000.0001)                 4.309791371221616E+04,      /* J = 15 */
(PID.TID 0000.0001)                 4.351454176087940E+04,      /* J = 16 */
(PID.TID 0000.0001)                 4.392822864881465E+04,      /* J = 17 */
(PID.TID 0000.0001)                 4.433888547805120E+04,      /* J = 18 */
(PID.TID 0000.0001)                 4.474642369096899E+04,      /* J = 19 */
(PID.TID 0000.0001)                 4.515075502217317E+04,      /* J = 20 */
(PID.TID 0000.0001)                 4.555179145554101E+04,      /* J = 21 */
(PID.TID 0000.0001)                 4.594944520275577E+04,      /* J = 22 */
(PID.TID 0000.0001)                 4.634362867401398E+04,      /* J = 23 */
(PID.TID 0000.0001)                 4.673425447947427E+04,      /* J = 24 */
(PID.TID 0000.0001)                 4.712123544873745E+04,      /* J = 25 */
(PID.TID 0000.0001)                 4.750448467975499E+04,      /* J = 26 */
(PID.TID 0000.0001)                 4.788391567392174E+04,      /* J = 27 */
(PID.TID 0000.0001)                 4.825944271092693E+04,      /* J = 28 */
(PID.TID 0000.0001)                 4.863098220111143E+04,      /* J = 29 */
(PID.TID 0000.0001)                 4.899845499569884E+04       /* J = 30 */
(PID.TID 0000.0001)     ;
(PID.TID 0000.0001) dxG =  /* dxG(:,1,:,1) ( units: m ) */
(PID.TID 0000.0001)                 2.052711702021451E+04,      /* I =  1 */
(PID.TID 0000.0001)                 2.051953983526162E+04,      /* I =  2 */
(PID.TID 0000.0001)                 2.051251425926268E+04,      /* I =  3 */
(PID.TID 0000.0001)                 2.050606148013825E+04,      /* I =  4 */
(PID.TID 0000.0001)                 2.050020059906299E+04,      /* I =  5 */
(PID.TID 0000.0001)                 2.049494867086169E+04,      /* I =  6 */
(PID.TID 0000.0001)                 2.049032075633103E+04,      /* I =  7 */
(PID.TID 0000.0001)                 2.048632995314923E+04,      /* I =  8 */
(PID.TID 0000.0001)                 2.048298743895549E+04,      /* I =  9 */
(PID.TID 0000.0001)                 2.048030251694177E+04,      /* I = 10 */
(PID.TID 0000.0001)                 2.047828270203973E+04,      /* I = 11 */
(PID.TID 0000.0001)                 2.047693414389448E+04,      /* I = 12 */
(PID.TID 0000.0001)     2 @  2.047624433858785E+04,             /* I = 13: 14 */
(PID.TID 0000.0001)                 2.047693414389443E+04,      /* I = 15 */
(PID.TID 0000.0001)                 2.047828270203978E+04,      /* I = 16 */
(PID.TID 0000.0001)                 2.048030251694177E+04,      /* I = 17 */
(PID.TID 0000.0001)                 2.048298743895548E+04,      /* I = 18 */
(PID.TID 0000.0001)                 2.048632995314927E+04,      /* I = 19 */
(PID.TID 0000.0001)                 2.049032075633093E+04,      /* I = 20 */
(PID.TID 0000.0001)                 2.049494867086174E+04,      /* I = 21 */
(PID.TID 0000.0001)                 2.050020059906297E+04,      /* I = 22 */
(PID.TID 0000.0001)                 2.050606148013830E+04,      /* I = 23 */
(PID.TID 0000.0001)                 2.051251425926268E+04,      /* I = 24 */
(PID.TID 0000.0001)                 2.051953983526163E+04,      /* I = 25 */
(PID.TID 0000.0001)                 2.052711702021443E+04,      /* I = 26 */
(PID.TID 0000.0001)                 2.053522248594683E+04,      /* I = 27 */
(PID.TID 0000.0001)                 2.054383070727552E+04,      /* I = 28 */
(PID.TID 0000.0001)                 2.055291390664790E+04,      /* I = 29 */
(PID.TID 0000.0001)                 2.056244198352907E+04       /* I = 30 */
(PID.TID 0000.0001)     ;
(PID.TID 0000.0001) dxG =  /* dxG(1,:,1,:) ( units: m ) */
(PID.TID 0000.0001)                 2.052711702021451E+04,      /* J =  1 */
(PID.TID 0000.0001)                 2.089954736357391E+04,      /* J =  2 */
(PID.TID 0000.0001)                 2.128641124518697E+04,      /* J =  3 */
(PID.TID 0000.0001)                 2.168771062037700E+04,      /* J =  4 */
(PID.TID 0000.0001)                 2.210344484655194E+04,      /* J =  5 */
(PID.TID 0000.0001)                 2.253361185972884E+04,      /* J =  6 */
(PID.TID 0000.0001)                 2.297820925105574E+04,      /* J =  7 */
(PID.TID 0000.0001)                 2.343723524028478E+04,      /* J =  8 */
(PID.TID 0000.0001)                 2.391068954427550E+04,      /* J =  9 */
(PID.TID 0000.0001)                 2.439857414125275E+04,      /* J = 10 */
(PID.TID 0000.0001)                 2.490089393241153E+04,      /* J = 11 */
(PID.TID 0000.0001)                 2.541765730414359E+04,      /* J = 12 */
(PID.TID 0000.0001)                 2.594887659459613E+04,      /* J = 13 */
(PID.TID 0000.0001)                 2.649456846940333E+04,      /* J = 14 */
(PID.TID 0000.0001)                 2.705475421181358E+04,      /* J = 15 */
(PID.TID 0000.0001)                 2.762945993231310E+04,      /* J = 16 */
(PID.TID 0000.0001)                 2.821871670385097E+04,      /* J = 17 */
(PID.TID 0000.0001)                 2.882256062780631E+04,      /* J = 18 */
(PID.TID 0000.0001)                 2.944103283669238E+04,      /* J = 19 */
(PID.TID 0000.0001)                 3.007417943861200E+04,      /* J = 20 */
(PID.TID 0000.0001)                 3.072205140902393E+04,      /* J = 21 */
(PID.TID 0000.0001)                 3.138470443467240E+04,      /* J = 22 */
(PID.TID 0000.0001)                 3.206219871470027E+04,      /* J = 23 */
(PID.TID 0000.0001)                 3.275459872326910E+04,      /* J = 24 */
(PID.TID 0000.0001)                 3.346197293831744E+04,      /* J = 25 */
(PID.TID 0000.0001)                 3.418439354048331E+04,      /* J = 26 */
(PID.TID 0000.0001)                 3.492193608585089E+04,      /* J = 27 */
(PID.TID 0000.0001)                 3.567467915738818E+04,      /* J = 28 */
(PID.TID 0000.0001)                 3.644270400216877E+04,      /* J = 29 */
(PID.TID 0000.0001)                 3.722609417427087E+04       /* J = 30 */
(PID.TID 0000.0001)     ;
(PID.TID 0000.0001) dyG =  /* dyG(:,1,:,1) ( units: m ) */
(PID.TID 0000.0001)                 3.696936823759973E+04,      /* I =  1 */
(PID.TID 0000.0001)                 3.704398547852144E+04,      /* I =  2 */
(PID.TID 0000.0001)                 3.711263318385338E+04,      /* I =  3 */
(PID.TID 0000.0001)                 3.717531082528212E+04,      /* I =  4 */
(PID.TID 0000.0001)                 3.723201816961422E+04,      /* I =  5 */
(PID.TID 0000.0001)                 3.728275520872145E+04,      /* I =  6 */
(PID.TID 0000.0001)                 3.732752209699158E+04,      /* I =  7 */
(PID.TID 0000.0001)                 3.736631909640826E+04,      /* I =  8 */
(PID.TID 0000.0001)                 3.739914652852553E+04,      /* I =  9 */
(PID.TID 0000.0001)                 3.742600473350589E+04,      /* I = 10 */
(PID.TID 0000.0001)                 3.744689403567852E+04,      /* I = 11 */
(PID.TID 0000.0001)                 3.746181471567877E+04,      /* I = 12 */
(PID.TID 0000.0001)                 3.747076698884368E+04,      /* I = 13 */
(PID.TID 0000.0001)                 3.747376174977726E+04,      /* I = 14 */
(PID.TID 0000.0001)                 3.747076698884368E+04,      /* I = 15 */
(PID.TID 0000.0001)                 3.746181471567877E+04,      /* I = 16 */
(PID.TID 0000.0001)                 3.744689403567852E+04,      /* I = 17 */
(PID.TID 0000.0001)                 3.742600473350589E+04,      /* I = 18 */
(PID.TID 0000.0001)                 3.739914652852552E+04,      /* I = 19 */
(PID.TID 0000.0001)                 3.736631909640826E+04,      /* I = 20 */
(PID.TID 0000.0001)                 3.732752209699157E+04,      /* I = 21 */
(PID.TID 0000.0001)                 3.728275520872146E+04,      /* I = 22 */
(PID.TID 0000.0001)                 3.723201816961422E+04,      /* I = 23 */
(PID.TID 0000.0001)                 3.717531082528211E+04,      /* I = 24 */
(PID.TID 0000.0001)                 3.711263318385338E+04,      /* I = 25 */
(PID.TID 0000.0001)                 3.704398547852145E+04,      /* I = 26 */
(PID.TID 0000.0001)                 3.696936823759972E+04,      /* I = 27 */
(PID.TID 0000.0001)                 3.688878236278851E+04,      /* I = 28 */
(PID.TID 0000.0001)                 3.680222921581766E+04,      /* I = 29 */
(PID.TID 0000.0001)                 3.670971071402137E+04       /* I = 30 */
(PID.TID 0000.0001)     ;
(PID.TID 0000.0001) dyG =  /* dyG(1,:,1,:) ( units: m ) */
(PID.TID 0000.0001)                 3.696936823759973E+04,      /* J =  1 */
(PID.TID 0000.0001)                 3.741746190559281E+04,      /* J =  2 */
(PID.TID 0000.0001)                 3.786390067184393E+04,      /* J =  3 */
(PID.TID 0000.0001)                 3.830858172733455E+04,      /* J =  4 */
(PID.TID 0000.0001)                 3.875140319955796E+04,      /* J =  5 */
(PID.TID 0000.0001)                 3.919226424948571E+04,      /* J =  6 */
(PID.TID 0000.0001)                 3.963106512715793E+04,      /* J =  7 */
(PID.TID 0000.0001)                 4.006770719102380E+04,      /* J =  8 */
(PID.TID 0000.0001)                 4.050209290047463E+04,      /* J =  9 */
(PID.TID 0000.0001)                 4.093412578484027E+04,      /* J = 10 */
(PID.TID 0000.0001)                 4.136371039407872E+04,      /* J = 11 */
(PID.TID 0000.0001)                 4.179075223673176E+04,      /* J = 12 */
(PID.TID 0000.0001)                 4.221515770920290E+04,      /* J = 13 */
(PID.TID 0000.0001)                 4.263683401805614E+04,      /* J = 14 */
(PID.TID 0000.0001)                 4.305568910412182E+04,      /* J = 15 */
(PID.TID 0000.0001)                 4.347163156363047E+04,      /* J = 16 */
(PID.TID 0000.0001)                 4.388457057225752E+04,      /* J = 17 */
(PID.TID 0000.0001)                 4.429441581934092E+04,      /* J = 18 */
(PID.TID 0000.0001)                 4.470107744374240E+04,      /* J = 19 */
(PID.TID 0000.0001)                 4.510446597891348E+04,      /* J = 20 */
(PID.TID 0000.0001)                 4.550449230395439E+04,      /* J = 21 */
(PID.TID 0000.0001)                 4.590106761654920E+04,      /* J = 22 */
(PID.TID 0000.0001)                 4.629410339849156E+04,      /* J = 23 */
(PID.TID 0000.0001)                 4.668351141269982E+04,      /* J = 24 */
(PID.TID 0000.0001)                 4.706920371856177E+04,      /* J = 25 */
(PID.TID 0000.0001)                 4.745109271730031E+04,      /* J = 26 */
(PID.TID 0000.0001)                 4.782909128417812E+04,      /* J = 27 */
(PID.TID 0000.0001)                 4.820311314005602E+04,      /* J = 28 */
(PID.TID 0000.0001)                 4.857307420014453E+04,      /* J = 29 */
(PID.TID 0000.0001)                 4.893889490827491E+04       /* J = 30 */
(PID.TID 0000.0001)     ;
(PID.TID 0000.0001) dxC =  /* dxC(:,1,:,1) ( units: m ) */
(PID.TID 0000.0001)                 2.071567651695695E+04,      /* I =  1 */
(PID.TID 0000.0001)                 2.070751892245589E+04,      /* I =  2 */
(PID.TID 0000.0001)                 2.069992855779408E+04,      /* I =  3 */
(PID.TID 0000.0001)                 2.069292717562287E+04,      /* I =  4 */
(PID.TID 0000.0001)                 2.068653446229046E+04,      /* I =  5 */
(PID.TID 0000.0001)                 2.068076808552306E+04,      /* I =  6 */
(PID.TID 0000.0001)                 2.067564373903614E+04,      /* I =  7 */
(PID.TID 0000.0001)                 2.067117518190149E+04,      /* I =  8 */
(PID.TID 0000.0001)                 2.066737427558298E+04,      /* I =  9 */
(PID.TID 0000.0001)                 2.066425102685107E+04,      /* I = 10 */
(PID.TID 0000.0001)                 2.066181364132844E+04,      /* I = 11 */
(PID.TID 0000.0001)                 2.066006869803818E+04,      /* I = 12 */
(PID.TID 0000.0001)                 2.065902266229015E+04,      /* I = 13 */
(PID.TID 0000.0001)                 2.065863826775786E+04,      /* I = 14 */
(PID.TID 0000.0001)                 2.065902266229016E+04,      /* I = 15 */
(PID.TID 0000.0001)                 2.066006869803813E+04,      /* I = 16 */
(PID.TID 0000.0001)                 2.066181364132850E+04,      /* I = 17 */
(PID.TID 0000.0001)                 2.066425102685108E+04,      /* I = 18 */
(PID.TID 0000.0001)                 2.066737427558298E+04,      /* I = 19 */
(PID.TID 0000.0001)                 2.067117518190149E+04,      /* I = 20 */
(PID.TID 0000.0001)                 2.067564373903615E+04,      /* I = 21 */
(PID.TID 0000.0001)                 2.068076808552304E+04,      /* I = 22 */
(PID.TID 0000.0001)                 2.068653446229045E+04,      /* I = 23 */
(PID.TID 0000.0001)                 2.069292717562287E+04,      /* I = 24 */
(PID.TID 0000.0001)                 2.069992855779413E+04,      /* I = 25 */
(PID.TID 0000.0001)                 2.070751892245584E+04,      /* I = 26 */
(PID.TID 0000.0001)                 2.071567651695691E+04,      /* I = 27 */
(PID.TID 0000.0001)                 2.072437747324421E+04,      /* I = 28 */
(PID.TID 0000.0001)                 2.073359574551806E+04,      /* I = 29 */
(PID.TID 0000.0001)                 2.074330305575613E+04       /* I = 30 */
(PID.TID 0000.0001)     ;
(PID.TID 0000.0001) dxC =  /* dxC(1,:,1,:) ( units: m ) */
(PID.TID 0000.0001)                 2.071567651695695E+04,      /* J =  1 */
(PID.TID 0000.0001)                 2.109563672137949E+04,      /* J =  2 */
(PID.TID 0000.0001)                 2.149002149497106E+04,      /* J =  3 */
(PID.TID 0000.0001)                 2.189882927482529E+04,      /* J =  4 */
(PID.TID 0000.0001)                 2.232205646389843E+04,      /* J =  5 */
(PID.TID 0000.0001)                 2.275969855854128E+04,      /* J =  6 */
(PID.TID 0000.0001)                 2.321175117362029E+04,      /* J =  7 */
(PID.TID 0000.0001)                 2.367821096276529E+04,      /* J =  8 */
(PID.TID 0000.0001)                 2.415907643347346E+04,      /* J =  9 */
(PID.TID 0000.0001)                 2.465434865814045E+04,      /* J = 10 */
(PID.TID 0000.0001)                 2.516403188365780E+04,      /* J = 11 */
(PID.TID 0000.0001)                 2.568813404310613E+04,      /* J = 12 */
(PID.TID 0000.0001)                 2.622666717399572E+04,      /* J = 13 */
(PID.TID 0000.0001)                 2.677964774799169E+04,      /* J = 14 */
(PID.TID 0000.0001)                 2.734709691757753E+04,      /* J = 15 */
(PID.TID 0000.0001)                 2.792904068517491E+04,      /* J = 16 */
(PID.TID 0000.0001)                 2.852551000032625E+04,      /* J = 17 */
(PID.TID 0000.0001)                 2.913654079081990E+04,      /* J = 18 */
(PID.TID 0000.0001)                 2.976217393306023E+04,      /* J = 19 */
(PID.TID 0000.0001)                 3.040245516699173E+04,      /* J = 20 */
(PID.TID 0000.0001)                 3.105743496108396E+04,      /* J = 21 */
(PID.TID 0000.0001)                 3.172716833208323E+04,      /* J = 22 */
(PID.TID 0000.0001)                 3.241171462422546E+04,      /* J = 23 */
(PID.TID 0000.0001)                 3.311113725244482E+04,      /* J = 24 */
(PID.TID 0000.0001)                 3.382550341391024E+04,      /* J = 25 */
(PID.TID 0000.0001)                 3.455488377140061E+04,      /* J = 26 */
(PID.TID 0000.0001)                 3.529935211332738E+04,      /* J = 27 */
(PID.TID 0000.0001)                 3.605898499520765E+04,      /* J = 28 */
(PID.TID 0000.0001)                 3.683386137397906E+04,      /* J = 29 */
(PID.TID 0000.0001)                 3.762406228407349E+04       /* J = 30 */
(PID.TID 0000.0001)     ;
(PID.TID 0000.0001) dyC =  /* dyC(:,1,:,1) ( units: m ) */
(PID.TID 0000.0001)                 3.678277710845771E+04,      /* I =  1 */
(PID.TID 0000.0001)                 3.685438685866048E+04,      /* I =  2 */
(PID.TID 0000.0001)                 3.692002588020908E+04,      /* I =  3 */
(PID.TID 0000.0001)                 3.697969453541307E+04,      /* I =  4 */
(PID.TID 0000.0001)                 3.703339337607873E+04,      /* I =  5 */
(PID.TID 0000.0001)                 3.708112307814123E+04,      /* I =  6 */
(PID.TID 0000.0001)                 3.712288438364359E+04,      /* I =  7 */
(PID.TID 0000.0001)                 3.715867804995441E+04,      /* I =  8 */
(PID.TID 0000.0001)                 3.718850480589901E+04,      /* I =  9 */
(PID.TID 0000.0001)                 3.721236531452968E+04,      /* I = 10 */
(PID.TID 0000.0001)                 3.723026014246432E+04,      /* I = 11 */
(PID.TID 0000.0001)                 3.724218973548726E+04,      /* I = 12 */
(PID.TID 0000.0001)     2 @  3.724815440020872E+04,             /* I = 13: 14 */
(PID.TID 0000.0001)                 3.724218973548726E+04,      /* I = 15 */
(PID.TID 0000.0001)                 3.723026014246432E+04,      /* I = 16 */
(PID.TID 0000.0001)                 3.721236531452968E+04,      /* I = 17 */
(PID.TID 0000.0001)                 3.718850480589901E+04,      /* I = 18 */
(PID.TID 0000.0001)                 3.715867804995440E+04,      /* I = 19 */
(PID.TID 0000.0001)                 3.712288438364359E+04,      /* I = 20 */
(PID.TID 0000.0001)                 3.708112307814122E+04,      /* I = 21 */
(PID.TID 0000.0001)                 3.703339337607873E+04,      /* I = 22 */
(PID.TID 0000.0001)                 3.697969453541307E+04,      /* I = 23 */
(PID.TID 0000.0001)                 3.692002588020908E+04,      /* I = 24 */
(PID.TID 0000.0001)                 3.685438685866047E+04,      /* I = 25 */
(PID.TID 0000.0001)                 3.678277710845772E+04,      /* I = 26 */
(PID.TID 0000.0001)                 3.670519653011381E+04,      /* I = 27 */
(PID.TID 0000.0001)                 3.662164536844059E+04,      /* I = 28 */
(PID.TID 0000.0001)                 3.653212430257830E+04,      /* I = 29 */
(PID.TID 0000.0001)                 3.643663454523116E+04       /* I = 30 */
(PID.TID 0000.0001)     ;
(PID.TID 0000.0001) dyC =  /* dyC(1,:,1,:) ( units: m ) */
(PID.TID 0000.0001)                 3.678277710845771E+04,      /* J =  1 */
(PID.TID 0000.0001)                 3.723168694115569E+04,      /* J =  2 */
(PID.TID 0000.0001)                 3.767901897410101E+04,      /* J =  3 */
(PID.TID 0000.0001)                 3.812467364657602E+04,      /* J =  4 */
(PID.TID 0000.0001)                 3.856855210935249E+04,      /* J =  5 */
(PID.TID 0000.0001)                 3.901055633269680E+04,      /* J =  6 */
(PID.TID 0000.0001)                 3.945058917911859E+04,      /* J =  7 */
(PID.TID 0000.0001)                 3.988855443472220E+04,      /* J =  8 */
(PID.TID 0000.0001)                 4.032435681898361E+04,      /* J =  9 */
(PID.TID 0000.0001)                 4.075790196435841E+04,      /* J = 10 */
(PID.TID 0000.0001)                 4.118909638222960E+04,      /* J = 11 */
(PID.TID 0000.0001)                 4.161784741043697E+04,      /* J = 12 */
(PID.TID 0000.0001)                 4.204406315499045E+04,      /* J = 13 */
(PID.TID 0000.0001)                 4.246765242091182E+04,      /* J = 14 */
(PID.TID 0000.0001)                 4.288852464034393E+04,      /* J = 15 */
(PID.TID 0000.0001)                 4.330658981118225E+04,      /* J = 16 */
(PID.TID 0000.0001)                 4.372175841431943E+04,      /* J = 17 */
(PID.TID 0000.0001)                 4.413394136293020E+04,      /* J = 18 */
(PID.TID 0000.0001)                 4.454304993440304E+04,      /* J = 19 */
(PID.TID 0000.0001)                 4.494899572325061E+04,      /* J = 20 */
(PID.TID 0000.0001)                 4.535169059286820E+04,      /* J = 21 */
(PID.TID 0000.0001)                 4.575104664412256E+04,      /* J = 22 */
(PID.TID 0000.0001)                 4.614697618947234E+04,      /* J = 23 */
(PID.TID 0000.0001)                 4.653939173844085E+04,      /* J = 24 */
(PID.TID 0000.0001)                 4.692820600744408E+04,      /* J = 25 */
(PID.TID 0000.0001)                 4.731333194957835E+04,      /* J = 26 */
(PID.TID 0000.0001)                 4.769468283927006E+04,      /* J = 27 */
(PID.TID 0000.0001)                 4.807217249390641E+04,      /* J = 28 */
(PID.TID 0000.0001)                 4.844571593362943E+04,      /* J = 29 */
(PID.TID 0000.0001)                 4.881523285497380E+04       /* J = 30 */
(PID.TID 0000.0001)     ;
(PID.TID 0000.0001) dxV =  /* dxV(:,1,:,1) ( units: m ) */
(PID.TID 0000.0001)                 2.053110526075532E+04,      /* I =  1 */
(PID.TID 0000.0001)                 2.052326088418283E+04,      /* I =  2 */
(PID.TID 0000.0001)                 2.051595672244828E+04,      /* I =  3 */
(PID.TID 0000.0001)                 2.050921502797681E+04,      /* I =  4 */
(PID.TID 0000.0001)                 2.050305593886370E+04,      /* I =  5 */
(PID.TID 0000.0001)                 2.049749752783181E+04,      /* I =  6 */
(PID.TID 0000.0001)                 2.049255584793284E+04,      /* I =  7 */
(PID.TID 0000.0001)                 2.048824497292525E+04,      /* I =  8 */
(PID.TID 0000.0001)                 2.048457703515834E+04,      /* I =  9 */
(PID.TID 0000.0001)                 2.048156226915133E+04,      /* I = 10 */
(PID.TID 0000.0001)                 2.047920906551970E+04,      /* I = 11 */
(PID.TID 0000.0001)                 2.047752414469434E+04,      /* I = 12 */
(PID.TID 0000.0001)                 2.047651405696554E+04,      /* I = 13 */
(PID.TID 0000.0001)                 2.047614194664622E+04,      /* I = 14 */
(PID.TID 0000.0001)                 2.047651405696559E+04,      /* I = 15 */
(PID.TID 0000.0001)                 2.047752414469430E+04,      /* I = 16 */
(PID.TID 0000.0001)                 2.047920906551971E+04,      /* I = 17 */
(PID.TID 0000.0001)                 2.048156226915138E+04,      /* I = 18 */
(PID.TID 0000.0001)                 2.048457703515829E+04,      /* I = 19 */
(PID.TID 0000.0001)                 2.048824497292535E+04,      /* I = 20 */
(PID.TID 0000.0001)                 2.049255584793274E+04,      /* I = 21 */
(PID.TID 0000.0001)                 2.049749752783187E+04,      /* I = 22 */
(PID.TID 0000.0001)                 2.050305593886373E+04,      /* I = 23 */
(PID.TID 0000.0001)                 2.050921502797675E+04,      /* I = 24 */
(PID.TID 0000.0001)                 2.051595672244826E+04,      /* I = 25 */
(PID.TID 0000.0001)                 2.052326088418290E+04,      /* I = 26 */
(PID.TID 0000.0001)                 2.053110526075532E+04,      /* I = 27 */
(PID.TID 0000.0001)                 2.053946543494557E+04,      /* I = 28 */
(PID.TID 0000.0001)                 2.054831476098181E+04,      /* I = 29 */
(PID.TID 0000.0001)                 2.055762430839241E+04       /* I = 30 */
(PID.TID 0000.0001)     ;
(PID.TID 0000.0001) dxV =  /* dxV(1,:,1,:) ( units: m ) */
(PID.TID 0000.0001)                 2.053110526075532E+04,      /* J =  1 */
(PID.TID 0000.0001)                 2.090385356266093E+04,      /* J =  2 */
(PID.TID 0000.0001)                 2.129102607314009E+04,      /* J =  3 */
(PID.TID 0000.0001)                 2.169262269996662E+04,      /* J =  4 */
(PID.TID 0000.0001)                 2.210864071595607E+04,      /* J =  5 */
(PID.TID 0000.0001)                 2.253907593617405E+04,      /* J =  6 */
(PID.TID 0000.0001)                 2.298392379458377E+04,      /* J =  7 */
(PID.TID 0000.0001)                 2.344318031700113E+04,      /* J =  8 */
(PID.TID 0000.0001)                 2.391684298864163E+04,      /* J =  9 */
(PID.TID 0000.0001)                 2.440491151699962E+04,      /* J = 10 */
(PID.TID 0000.0001)                 2.490738849171163E+04,      /* J = 11 */
(PID.TID 0000.0001)                 2.542427994477456E+04,      /* J = 12 */
(PID.TID 0000.0001)                 2.595559581485789E+04,      /* J = 13 */
(PID.TID 0000.0001)                 2.650135032062733E+04,      /* J = 14 */
(PID.TID 0000.0001)                 2.706156224833991E+04,      /* J = 15 */
(PID.TID 0000.0001)                 2.763625515890197E+04,      /* J = 16 */
(PID.TID 0000.0001)                 2.822545752042790E+04,      /* J = 17 */
(PID.TID 0000.0001)                 2.882920277162976E+04,      /* J = 18 */
(PID.TID 0000.0001)                 2.944752932187136E+04,      /* J = 19 */
(PID.TID 0000.0001)                 3.008048049319959E+04,      /* J = 20 */
(PID.TID 0000.0001)                 3.072810440966728E+04,      /* J = 21 */
(PID.TID 0000.0001)                 3.139045383903842E+04,      /* J = 22 */
(PID.TID 0000.0001)                 3.206758599174654E+04,      /* J = 23 */
(PID.TID 0000.0001)                 3.275956228156967E+04,      /* J = 24 */
(PID.TID 0000.0001)                 3.346644805244220E+04,      /* J = 25 */
(PID.TID 0000.0001)                 3.418831227550044E+04,      /* J = 26 */
(PID.TID 0000.0001)                 3.492522722017510E+04,      /* J = 27 */
(PID.TID 0000.0001)                 3.567726810399632E+04,      /* J = 28 */
(PID.TID 0000.0001)                 3.644451272859776E+04,      /* J = 29 */
(PID.TID 0000.0001)                 3.722704112152557E+04       /* J = 30 */
(PID.TID 0000.0001)     ;
(PID.TID 0000.0001) dyU =  /* dyU(:,1,:,1) ( units: m ) */
(PID.TID 0000.0001)                 3.674473316658630E+04,      /* I =  1 */
(PID.TID 0000.0001)                 3.681932833792822E+04,      /* I =  2 */
(PID.TID 0000.0001)                 3.688795269313092E+04,      /* I =  3 */
(PID.TID 0000.0001)                 3.695060647275718E+04,      /* I =  4 */
(PID.TID 0000.0001)                 3.700729014250917E+04,      /* I =  5 */
(PID.TID 0000.0001)                 3.705800432398131E+04,      /* I =  6 */
(PID.TID 0000.0001)                 3.710274973294064E+04,      /* I =  7 */
(PID.TID 0000.0001)                 3.714152712500728E+04,      /* I =  8 */
(PID.TID 0000.0001)                 3.717433724834998E+04,      /* I =  9 */
(PID.TID 0000.0001)                 3.720118080314009E+04,      /* I = 10 */
(PID.TID 0000.0001)                 3.722205840764935E+04,      /* I = 11 */
(PID.TID 0000.0001)                 3.723697057073888E+04,      /* I = 12 */
(PID.TID 0000.0001)                 3.724591767054543E+04,      /* I = 13 */
(PID.TID 0000.0001)                 3.724891083990022E+04,      /* I = 14 */
(PID.TID 0000.0001)                 3.724591767054542E+04,      /* I = 15 */
(PID.TID 0000.0001)                 3.723697057073889E+04,      /* I = 16 */
(PID.TID 0000.0001)                 3.722205840764935E+04,      /* I = 17 */
(PID.TID 0000.0001)                 3.720118080314008E+04,      /* I = 18 */
(PID.TID 0000.0001)                 3.717433724834998E+04,      /* I = 19 */
(PID.TID 0000.0001)                 3.714152712500728E+04,      /* I = 20 */
(PID.TID 0000.0001)                 3.710274973294063E+04,      /* I = 21 */
(PID.TID 0000.0001)                 3.705800432398131E+04,      /* I = 22 */
(PID.TID 0000.0001)                 3.700729014250917E+04,      /* I = 23 */
(PID.TID 0000.0001)                 3.695060647275716E+04,      /* I = 24 */
(PID.TID 0000.0001)                 3.688795269313094E+04,      /* I = 25 */
(PID.TID 0000.0001)                 3.681932833792821E+04,      /* I = 26 */
(PID.TID 0000.0001)                 3.674473316658630E+04,      /* I = 27 */
(PID.TID 0000.0001)                 3.666416724104654E+04,      /* I = 28 */
(PID.TID 0000.0001)                 3.657763101146962E+04,      /* I = 29 */
(PID.TID 0000.0001)                 3.648512541079492E+04       /* I = 30 */
(PID.TID 0000.0001)     ;
(PID.TID 0000.0001) dyU =  /* dyU(1,:,1,:) ( units: m ) */
(PID.TID 0000.0001)                 3.674473316658630E+04,      /* J =  1 */
(PID.TID 0000.0001)                 3.719361547538896E+04,      /* J =  2 */
(PID.TID 0000.0001)                 3.764089459751266E+04,      /* J =  3 */
(PID.TID 0000.0001)                 3.808646730382765E+04,      /* J =  4 */
(PID.TID 0000.0001)                 3.853023123895088E+04,      /* J =  5 */
(PID.TID 0000.0001)                 3.897208503739593E+04,      /* J =  6 */
(PID.TID 0000.0001)                 3.941192840112046E+04,      /* J =  7 */
(PID.TID 0000.0001)                 3.984966213263487E+04,      /* J =  8 */
(PID.TID 0000.0001)                 4.028518814419441E+04,      /* J =  9 */
(PID.TID 0000.0001)                 4.071840943468107E+04,      /* J = 10 */
(PID.TID 0000.0001)                 4.114923005120406E+04,      /* J = 11 */
(PID.TID 0000.0001)                 4.157755503103340E+04,      /* J = 12 */
(PID.TID 0000.0001)                 4.200329033666767E+04,      /* J = 13 */
(PID.TID 0000.0001)                 4.242634277960793E+04,      /* J = 14 */
(PID.TID 0000.0001)                 4.284661994092684E+04,      /* J = 15 */
(PID.TID 0000.0001)                 4.326403010205203E+04,      /* J = 16 */
(PID.TID 0000.0001)                 4.367848215462093E+04,      /* J = 17 */
(PID.TID 0000.0001)                 4.408988554208750E+04,      /* J = 18 */
(PID.TID 0000.0001)                 4.449815018464295E+04,      /* J = 19 */
(PID.TID 0000.0001)                 4.490318642518511E+04,      /* J = 20 */
(PID.TID 0000.0001)                 4.530490497491705E+04,      /* J = 21 */
(PID.TID 0000.0001)                 4.570321687598708E+04,      /* J = 22 */
(PID.TID 0000.0001)                 4.609803347024994E+04,      /* J = 23 */
(PID.TID 0000.0001)                 4.648926637992392E+04,      /* J = 24 */
(PID.TID 0000.0001)                 4.687682751321772E+04,      /* J = 25 */
(PID.TID 0000.0001)                 4.726062909013533E+04,      /* J = 26 */
(PID.TID 0000.0001)                 4.764058372401170E+04,      /* J = 27 */
(PID.TID 0000.0001)                 4.801660464021451E+04,      /* J = 28 */
(PID.TID 0000.0001)                 4.838860633247659E+04,      /* J = 29 */
(PID.TID 0000.0001)                 4.875650803021456E+04       /* J = 30 */
(PID.TID 0000.0001)     ;
(PID.TID 0000.0001) rA  =  /* rA (:,1,:,1) ( units: m^2 ) */
(PID.TID 0000.0001)                 7.665113621396177E+08,      /* I =  1 */
(PID.TID 0000.0001)                 7.677029697239892E+08,      /* I =  2 */
(PID.TID 0000.0001)                 7.687913877455838E+08,      /* I =  3 */
(PID.TID 0000.0001)                 7.697775979751738E+08,      /* I =  4 */
(PID.TID 0000.0001)                 7.706625466485583E+08,      /* I =  5 */
(PID.TID 0000.0001)                 7.714470546020026E+08,      /* I =  6 */
(PID.TID 0000.0001)                 7.721318586456149E+08,      /* I =  7 */
(PID.TID 0000.0001)                 7.727176271684608E+08,      /* I =  8 */
(PID.TID 0000.0001)                 7.732049082776864E+08,      /* I =  9 */
(PID.TID 0000.0001)                 7.735941717305043E+08,      /* I = 10 */
(PID.TID 0000.0001)                 7.738858051500469E+08,      /* I = 11 */
(PID.TID 0000.0001)                 7.740801100790358E+08,      /* I = 12 */
(PID.TID 0000.0001)                 7.741766386182301E+08,      /* I = 13 */
(PID.TID 0000.0001)                 7.741766369784317E+08,      /* I = 14 */
(PID.TID 0000.0001)                 7.740801094843833E+08,      /* I = 15 */
(PID.TID 0000.0001)                 7.738858062852919E+08,      /* I = 16 */
(PID.TID 0000.0001)                 7.735941726495122E+08,      /* I = 17 */
(PID.TID 0000.0001)                 7.732049061873938E+08,      /* I = 18 */
(PID.TID 0000.0001)                 7.727176277450933E+08,      /* I = 19 */
(PID.TID 0000.0001)                 7.721318658895597E+08,      /* I = 20 */
(PID.TID 0000.0001)                 7.714470531424019E+08,      /* I = 21 */
(PID.TID 0000.0001)                 7.706625470810328E+08,      /* I = 22 */
(PID.TID 0000.0001)                 7.697776024260553E+08,      /* I = 23 */
(PID.TID 0000.0001)                 7.687913844659867E+08,      /* I = 24 */
(PID.TID 0000.0001)                 7.677029712196296E+08,      /* I = 25 */
(PID.TID 0000.0001)                 7.665113646083255E+08,      /* I = 26 */
(PID.TID 0000.0001)                 7.652154604170089E+08,      /* I = 27 */
(PID.TID 0000.0001)                 7.638140926048064E+08,      /* I = 28 */
(PID.TID 0000.0001)                 7.623059927966076E+08,      /* I = 29 */
(PID.TID 0000.0001)                 7.606898330980235E+08       /* I = 30 */
(PID.TID 0000.0001)     ;
(PID.TID 0000.0001) rA  =  /* rA (1,:,1,:) ( units: m^2 ) */
(PID.TID 0000.0001)                 7.665113621396177E+08,      /* J =  1 */
(PID.TID 0000.0001)                 7.900134359449342E+08,      /* J =  2 */
(PID.TID 0000.0001)                 8.143679155417176E+08,      /* J =  3 */
(PID.TID 0000.0001)                 8.395900636155584E+08,      /* J =  4 */
(PID.TID 0000.0001)                 8.656947784023314E+08,      /* J =  5 */
(PID.TID 0000.0001)                 8.926966010402582E+08,      /* J =  6 */
(PID.TID 0000.0001)                 9.206097737377057E+08,      /* J =  7 */
(PID.TID 0000.0001)                 9.494482582794807E+08,      /* J =  8 */
(PID.TID 0000.0001)                 9.792257431806778E+08,      /* J =  9 */
(PID.TID 0000.0001)                 1.009955679131553E+09,      /* J = 10 */
(PID.TID 0000.0001)                 1.041651296044221E+09,      /* J = 11 */
(PID.TID 0000.0001)                 1.074325614369065E+09,      /* J = 12 */
(PID.TID 0000.0001)                 1.107991467925779E+09,      /* J = 13 */
(PID.TID 0000.0001)                 1.142661498173082E+09,      /* J = 14 */
(PID.TID 0000.0001)                 1.178348167164929E+09,      /* J = 15 */
(PID.TID 0000.0001)                 1.215063762235644E+09,      /* J = 16 */
(PID.TID 0000.0001)                 1.252820414073754E+09,      /* J = 17 */
(PID.TID 0000.0001)                 1.291630043617734E+09,      /* J = 18 */
(PID.TID 0000.0001)                 1.331504416619858E+09,      /* J = 19 */
(PID.TID 0000.0001)                 1.372455096362339E+09,      /* J = 20 */
(PID.TID 0000.0001)                 1.414493440828222E+09,      /* J = 21 */
(PID.TID 0000.0001)                 1.457630613639386E+09,      /* J = 22 */
(PID.TID 0000.0001)                 1.501877517761831E+09,      /* J = 23 */
(PID.TID 0000.0001)                 1.547244834049951E+09,      /* J = 24 */
(PID.TID 0000.0001)                 1.593742963439136E+09,      /* J = 25 */
(PID.TID 0000.0001)                 1.641382020566774E+09,      /* J = 26 */
(PID.TID 0000.0001)                 1.690171807481416E+09,      /* J = 27 */
(PID.TID 0000.0001)                 1.740121820832662E+09,      /* J = 28 */
(PID.TID 0000.0001)                 1.791241246411172E+09,      /* J = 29 */
(PID.TID 0000.0001)                 1.843539059771026E+09       /* J = 30 */
(PID.TID 0000.0001)     ;
(PID.TID 0000.0001) rAw =  /* rAw(:,1,:,1) ( units: m^2 ) */
(PID.TID 0000.0001)                 7.658765213139513E+08,      /* I =  1 */
(PID.TID 0000.0001)                 7.671201328724998E+08,      /* I =  2 */
(PID.TID 0000.0001)                 7.682600121490355E+08,      /* I =  3 */
(PID.TID 0000.0001)                 7.692972101823016E+08,      /* I =  4 */
(PID.TID 0000.0001)                 7.702326756407654E+08,      /* I =  5 */
(PID.TID 0000.0001)                 7.710673044850856E+08,      /* I =  6 */
(PID.TID 0000.0001)                 7.718018764844863E+08,      /* I =  7 */
(PID.TID 0000.0001)                 7.724370884091616E+08,      /* I =  8 */
(PID.TID 0000.0001)                 7.729735468223690E+08,      /* I =  9 */
(PID.TID 0000.0001)                 7.734117650170708E+08,      /* I = 10 */
(PID.TID 0000.0001)                 7.737521718456172E+08,      /* I = 11 */
(PID.TID 0000.0001)                 7.739951054308500E+08,      /* I = 12 */
(PID.TID 0000.0001)                 7.741408739107244E+08,      /* I = 13 */
(PID.TID 0000.0001)                 7.741880730050739E+08,      /* I = 14 */
(PID.TID 0000.0001)                 7.741408710636016E+08,      /* I = 15 */
(PID.TID 0000.0001)                 7.739951071427275E+08,      /* I = 16 */
(PID.TID 0000.0001)                 7.737521718095777E+08,      /* I = 17 */
(PID.TID 0000.0001)                 7.734117675938969E+08,      /* I = 18 */
(PID.TID 0000.0001)                 7.729735457051437E+08,      /* I = 19 */
(PID.TID 0000.0001)                 7.724370889497546E+08,      /* I = 20 */
(PID.TID 0000.0001)                 7.718018793856685E+08,      /* I = 21 */
(PID.TID 0000.0001)                 7.710673053320146E+08,      /* I = 22 */
(PID.TID 0000.0001)                 7.702326816053071E+08,      /* I = 23 */
(PID.TID 0000.0001)                 7.692972065242898E+08,      /* I = 24 */
(PID.TID 0000.0001)                 7.682600115363635E+08,      /* I = 25 */
(PID.TID 0000.0001)                 7.671201363863536E+08,      /* I = 26 */
(PID.TID 0000.0001)                 7.658765213499908E+08,      /* I = 27 */
(PID.TID 0000.0001)                 7.645280345158333E+08,      /* I = 28 */
(PID.TID 0000.0001)                 7.630734673343852E+08,      /* I = 29 */
(PID.TID 0000.0001)                 7.615115062009304E+08       /* I = 30 */
(PID.TID 0000.0001)     ;
(PID.TID 0000.0001) rAw =  /* rAw(1,:,1,:) ( units: m^2 ) */
(PID.TID 0000.0001)                 7.658765213139513E+08,      /* J =  1 */
(PID.TID 0000.0001)                 7.893768970448780E+08,      /* J =  2 */
(PID.TID 0000.0001)                 8.137283914516071E+08,      /* J =  3 */
(PID.TID 0000.0001)                 8.389460603348250E+08,      /* J =  4 */
(PID.TID 0000.0001)                 8.650445848102766E+08,      /* J =  5 */
(PID.TID 0000.0001)                 8.920382782103341E+08,      /* J =  6 */
(PID.TID 0000.0001)                 9.199411445401106E+08,      /* J =  7 */
(PID.TID 0000.0001)                 9.487668893433769E+08,      /* J =  8 */
(PID.TID 0000.0001)                 9.785289545527842E+08,      /* J =  9 */
(PID.TID 0000.0001)                 1.009240515336406E+09,      /* J = 10 */
(PID.TID 0000.0001)                 1.040914522930714E+09,      /* J = 11 */
(PID.TID 0000.0001)                 1.073563715488477E+09,      /* J = 12 */
(PID.TID 0000.0001)                 1.107200612276400E+09,      /* J = 13 */
(PID.TID 0000.0001)                 1.141837554111466E+09,      /* J = 14 */
(PID.TID 0000.0001)                 1.177486672294872E+09,      /* J = 15 */
(PID.TID 0000.0001)                 1.214159933192917E+09,      /* J = 16 */
(PID.TID 0000.0001)                 1.251869095602249E+09,      /* J = 17 */
(PID.TID 0000.0001)                 1.290625742284441E+09,      /* J = 18 */
(PID.TID 0000.0001)                 1.330441258846839E+09,      /* J = 19 */
(PID.TID 0000.0001)                 1.371326820624166E+09,      /* J = 20 */
(PID.TID 0000.0001)                 1.413293399742275E+09,      /* J = 21 */
(PID.TID 0000.0001)                 1.456351737475827E+09,      /* J = 22 */
(PID.TID 0000.0001)                 1.500512320083793E+09,      /* J = 23 */
(PID.TID 0000.0001)                 1.545785394792978E+09,      /* J = 24 */
(PID.TID 0000.0001)                 1.592180902277974E+09,      /* J = 25 */
(PID.TID 0000.0001)                 1.639708504465653E+09,      /* J = 26 */
(PID.TID 0000.0001)                 1.688377519501836E+09,      /* J = 27 */
(PID.TID 0000.0001)                 1.738196956421325E+09,      /* J = 28 */
(PID.TID 0000.0001)                 1.789175499722981E+09,      /* J = 29 */
(PID.TID 0000.0001)                 1.841321602441802E+09       /* J = 30 */
(PID.TID 0000.0001)     ;
(PID.TID 0000.0001) rAs =  /* rAs(:,1,:,1) ( units: m^2 ) */
(PID.TID 0000.0001)                 7.550751050606852E+08,      /* I =  1 */
(PID.TID 0000.0001)                 7.562658447772087E+08,      /* I =  2 */
(PID.TID 0000.0001)                 7.573533970032284E+08,      /* I =  3 */
(PID.TID 0000.0001)                 7.583387692957978E+08,      /* I =  4 */
(PID.TID 0000.0001)                 7.592229121974397E+08,      /* I =  5 */
(PID.TID 0000.0001)                 7.600066705467438E+08,      /* I =  6 */
(PID.TID 0000.0001)                 7.606907923080522E+08,      /* I =  7 */
(PID.TID 0000.0001)                 7.612759532224941E+08,      /* I =  8 */
(PID.TID 0000.0001)                 7.617627129118443E+08,      /* I =  9 */
(PID.TID 0000.0001)                 7.621515550445726E+08,      /* I = 10 */
(PID.TID 0000.0001)                 7.624428588466020E+08,      /* I = 11 */
(PID.TID 0000.0001)                 7.626369483673384E+08,      /* I = 12 */
(PID.TID 0000.0001)                 7.627333738515058E+08,      /* I = 13 */
(PID.TID 0000.0001)                 7.627333728604188E+08,      /* I = 14 */
(PID.TID 0000.0001)                 7.626369508901051E+08,      /* I = 15 */
(PID.TID 0000.0001)                 7.624428655319341E+08,      /* I = 16 */
(PID.TID 0000.0001)                 7.621515526659639E+08,      /* I = 17 */
(PID.TID 0000.0001)                 7.617627197953936E+08,      /* I = 18 */
(PID.TID 0000.0001)                 7.612759510961621E+08,      /* I = 19 */
(PID.TID 0000.0001)                 7.606907969030919E+08,      /* I = 20 */
(PID.TID 0000.0001)                 7.600066694295187E+08,      /* I = 21 */
(PID.TID 0000.0001)                 7.592229103594238E+08,      /* I = 22 */
(PID.TID 0000.0001)                 7.583387684488690E+08,      /* I = 23 */
(PID.TID 0000.0001)                 7.573533915792797E+08,      /* I = 24 */
(PID.TID 0000.0001)                 7.562658465071062E+08,      /* I = 25 */
(PID.TID 0000.0001)                 7.550751079979067E+08,      /* I = 26 */
(PID.TID 0000.0001)                 7.537800585200102E+08,      /* I = 27 */
(PID.TID 0000.0001)                 7.523795064624999E+08,      /* I = 28 */
(PID.TID 0000.0001)                 7.508721675027735E+08,      /* I = 29 */
(PID.TID 0000.0001)                 7.492566800675046E+08       /* I = 30 */
(PID.TID 0000.0001)     ;
(PID.TID 0000.0001) rAs =  /* rAs(1,:,1,:) ( units: m^2 ) */
(PID.TID 0000.0001)                 7.550751050606852E+08,      /* J =  1 */
(PID.TID 0000.0001)                 7.781568160584769E+08,      /* J =  2 */
(PID.TID 0000.0001)                 8.020831616625657E+08,      /* J =  3 */
(PID.TID 0000.0001)                 8.268695937660589E+08,      /* J =  4 */
(PID.TID 0000.0001)                 8.525311818286231E+08,      /* J =  5 */
(PID.TID 0000.0001)                 8.790826547724357E+08,      /* J =  6 */
(PID.TID 0000.0001)                 9.065383887828039E+08,      /* J =  7 */
(PID.TID 0000.0001)                 9.349124897125442E+08,      /* J =  8 */
(PID.TID 0000.0001)                 9.642187819277472E+08,      /* J =  9 */
(PID.TID 0000.0001)                 9.944708240750725E+08,      /* J = 10 */
(PID.TID 0000.0001)                 1.025681954725808E+09,      /* J = 11 */
(PID.TID 0000.0001)                 1.057865313008499E+09,      /* J = 12 */
(PID.TID 0000.0001)                 1.091033805921100E+09,      /* J = 13 */
(PID.TID 0000.0001)                 1.125200178247652E+09,      /* J = 14 */
(PID.TID 0000.0001)                 1.160376979600140E+09,      /* J = 15 */
(PID.TID 0000.0001)                 1.196576586510721E+09,      /* J = 16 */
(PID.TID 0000.0001)                 1.233811208089928E+09,      /* J = 17 */
(PID.TID 0000.0001)                 1.272092866313053E+09,      /* J = 18 */
(PID.TID 0000.0001)                 1.311433405822894E+09,      /* J = 19 */
(PID.TID 0000.0001)                 1.351844507714875E+09,      /* J = 20 */
(PID.TID 0000.0001)                 1.393337606051485E+09,      /* J = 21 */
(PID.TID 0000.0001)                 1.435923987908001E+09,      /* J = 22 */
(PID.TID 0000.0001)                 1.479614675036705E+09,      /* J = 23 */
(PID.TID 0000.0001)                 1.524420466465598E+09,      /* J = 24 */
(PID.TID 0000.0001)                 1.570351910729954E+09,      /* J = 25 */
(PID.TID 0000.0001)                 1.617419255741331E+09,      /* J = 26 */
(PID.TID 0000.0001)                 1.665632470339211E+09,      /* J = 27 */
(PID.TID 0000.0001)                 1.715001205152071E+09,      /* J = 28 */
(PID.TID 0000.0001)                 1.765534790867491E+09,      /* J = 29 */
(PID.TID 0000.0001)                 1.817242347954489E+09       /* J = 30 */
(PID.TID 0000.0001)     ;
(PID.TID 0000.0001) globalArea = /* Integrated horizontal Area (m^2) */
(PID.TID 0000.0001)                 3.580138611494435E+14
(PID.TID 0000.0001)     ;
(PID.TID 0000.0001) hasWetCSCorners = /* Domain contains CS corners (True/False) */
(PID.TID 0000.0001)                   F
(PID.TID 0000.0001)     ;
(PID.TID 0000.0001) // =======================================================
(PID.TID 0000.0001) // End of Model config. summary
(PID.TID 0000.0001) // =======================================================
(PID.TID 0000.0001) 
(PID.TID 0000.0001) == Packages configuration : Check & print summary ==
(PID.TID 0000.0001) 
(PID.TID 0000.0001) GGL90_CHECK: #define ALLOW_GGL90
(PID.TID 0000.0001) GGL90_CHECK: Some form of convection has been enabled
(PID.TID 0000.0001) GMREDI_CHECK: #define GMREDI
(PID.TID 0000.0001) GM_AdvForm =     /* if FALSE => use SkewFlux Form */
(PID.TID 0000.0001)                   T
(PID.TID 0000.0001)     ;
(PID.TID 0000.0001) GM_InMomAsStress = /* if TRUE => apply as Eddy Stress */
(PID.TID 0000.0001)                   F
(PID.TID 0000.0001)     ;
(PID.TID 0000.0001) GM_AdvSeparate = /* Calc Bolus & Euler Adv. separately */
(PID.TID 0000.0001)                   F
(PID.TID 0000.0001)     ;
(PID.TID 0000.0001) GM_ExtraDiag =   /* Tensor Extra Diag (line 1&2) non 0 */
(PID.TID 0000.0001)                   T
(PID.TID 0000.0001)     ;
(PID.TID 0000.0001) GM_isopycK =    /* Background Isopyc. Diffusivity [m^2/s] */
(PID.TID 0000.0001)                 1.000000000000000E+03
(PID.TID 0000.0001)     ;
(PID.TID 0000.0001) GM_skewflx*K =  /* Background GM_SkewFlx Diffusivity [m^2/s] */
(PID.TID 0000.0001)                 0.000000000000000E+00
(PID.TID 0000.0001)     ;
(PID.TID 0000.0001) GM_advec*K =    /* Backg. GM-Advec(=Bolus) Diffusivity [m^2/s]*/
(PID.TID 0000.0001)                 1.000000000000000E+03
(PID.TID 0000.0001)     ;
(PID.TID 0000.0001) GM_Kmin_horiz = /* Minimum Horizontal Diffusivity [m^2/s] */
(PID.TID 0000.0001)                 1.000000000000000E+02
(PID.TID 0000.0001)     ;
(PID.TID 0000.0001) GM_Visbeck_alpha = /* Visbeck alpha coeff. [-] */
(PID.TID 0000.0001)                 0.000000000000000E+00
(PID.TID 0000.0001)     ;
(PID.TID 0000.0001) GM_Small_Number =  /* epsilon used in slope calc */
(PID.TID 0000.0001)                 9.999999999999999E-21
(PID.TID 0000.0001)     ;
(PID.TID 0000.0001) GM_slopeSqCutoff = /* Slope^2 cut-off value */
(PID.TID 0000.0001)                 1.000000000000000E+08
(PID.TID 0000.0001)     ;
(PID.TID 0000.0001) GM_taper_scheme =  /* Type of Tapering/Clipping scheme */
(PID.TID 0000.0001)               'stableGmAdjTap                          '
(PID.TID 0000.0001)     ;
(PID.TID 0000.0001) GM_maxSlope =  /* Maximum Slope (Tapering/Clipping) */
(PID.TID 0000.0001)                 4.000000000000000E-03
(PID.TID 0000.0001)     ;
(PID.TID 0000.0001) GM_facTrL2dz = /* Minimum Trans.Layer Thick. (factor of dz) */
(PID.TID 0000.0001)                 1.000000000000000E+00
(PID.TID 0000.0001)     ;
(PID.TID 0000.0001) GM_facTrL2ML = /* Max.Trans.Layer Thick. (factor of MxL Depth)*/
(PID.TID 0000.0001)                 5.000000000000000E+00
(PID.TID 0000.0001)     ;
(PID.TID 0000.0001) GM_maxTransLay = /* Maximum Transition Layer Thickness [m] */
(PID.TID 0000.0001)                 5.000000000000000E+02
(PID.TID 0000.0001)     ;
(PID.TID 0000.0001) GM_UseBVP = /* if TRUE => use bvp a la Ferrari et al. (2010) */
(PID.TID 0000.0001)                   F
(PID.TID 0000.0001)     ;
(PID.TID 0000.0001) GM_BVP_ModeNumber = /* Vertical mode number for BVP wave speed */
(PID.TID 0000.0001)                       1
(PID.TID 0000.0001)     ;
(PID.TID 0000.0001) GM_BVP_cMin = /* Minimum wave speed for BVP [m/s] */
(PID.TID 0000.0001)                 1.000000000000000E-01
(PID.TID 0000.0001)     ;
(PID.TID 0000.0001) GM_useSubMeso = /* if TRUE => use Sub-Meso param. (B.Fox-Kemper) */
(PID.TID 0000.0001)                   F
(PID.TID 0000.0001)     ;
(PID.TID 0000.0001) subMeso_Ceff = /* efficiency coeff. of Mixed-Layer Eddies [-] */
(PID.TID 0000.0001)                 7.000000000000001E-02
(PID.TID 0000.0001)     ;
(PID.TID 0000.0001) subMeso_invTau = /* inverse of Sub-Meso mixing time-scale [/s] */
(PID.TID 0000.0001)                 2.000000000000000E-06
(PID.TID 0000.0001)     ;
(PID.TID 0000.0001) subMeso_LfMin = /* minimum length-scale "Lf" [m] */
(PID.TID 0000.0001)                 1.000000000000000E+03
(PID.TID 0000.0001)     ;
(PID.TID 0000.0001) subMeso_Lmax = /* maximum grid-scale length [m] */
(PID.TID 0000.0001)                 1.100000000000000E+05
(PID.TID 0000.0001)     ;
(PID.TID 0000.0001) SEAICE_CHECK: #define ALLOW_SEAICE
(PID.TID 0000.0001) CTRL_CHECK: #define ALLOW_CTRL
(PID.TID 0000.0001) GAD_CHECK: #define ALLOW_GENERIC_ADVDIFF
(PID.TID 0000.0001) // =======================================================
(PID.TID 0000.0001) // Check Model config. (CONFIG_CHECK):
(PID.TID 0000.0001) // CONFIG_CHECK : Normal End
(PID.TID 0000.0001) // =======================================================
(PID.TID 0000.0001) 
(PID.TID 0000.0001)  MDS_READ_META: opening file: pickup.0000000001.meta
(PID.TID 0000.0001)  nRecords = 403 ; filePrec =  64 ; fileIter =     26280
(PID.TID 0000.0001)     nDims =   2 , dims:
(PID.TID 0000.0001)    1:  90   1  90
(PID.TID 0000.0001)    2:1170   11170
(PID.TID 0000.0001)     nFlds =  11 , nFl3D =   8 , fields:
(PID.TID 0000.0001)  >Uvel    < >Vvel    < >Theta   < >Salt    < >GuNm1   < >GuNm2   < >GvNm1   < >GvNm2   < >EtaN    < >dEtaHdt < >EtaH    <
(PID.TID 0000.0001) missingVal=  1.00000000000000E+00 ; nTimRec =   1 , timeList:
(PID.TID 0000.0001)   9.460800000000E+07
(PID.TID 0000.0001) READ_MFLDS_3D_RL: read field: "Uvel    ", #   1 in fldList, rec=   1
(PID.TID 0000.0001)  MDS_READ_FIELD: opening global file: pickup.0000000001.data
(PID.TID 0000.0001) READ_MFLDS_3D_RL: read field: "Vvel    ", #   2 in fldList, rec=   2
(PID.TID 0000.0001)  MDS_READ_FIELD: opening global file: pickup.0000000001.data
(PID.TID 0000.0001) READ_MFLDS_3D_RL: read field: "Theta   ", #   3 in fldList, rec=   3
(PID.TID 0000.0001)  MDS_READ_FIELD: opening global file: pickup.0000000001.data
(PID.TID 0000.0001) READ_MFLDS_3D_RL: read field: "Salt    ", #   4 in fldList, rec=   4
(PID.TID 0000.0001)  MDS_READ_FIELD: opening global file: pickup.0000000001.data
(PID.TID 0000.0001) READ_MFLDS_3D_RL: read field: "GuNm1   ", #   5 in fldList, rec=   5
(PID.TID 0000.0001)  MDS_READ_FIELD: opening global file: pickup.0000000001.data
(PID.TID 0000.0001) READ_MFLDS_3D_RL: read field: "GvNm1   ", #   7 in fldList, rec=   7
(PID.TID 0000.0001)  MDS_READ_FIELD: opening global file: pickup.0000000001.data
(PID.TID 0000.0001) READ_MFLDS_3D_RL: read field: "EtaN    ", #   9 in fldList, rec= 401
(PID.TID 0000.0001)  MDS_READ_FIELD: opening global file: pickup.0000000001.data
(PID.TID 0000.0001) READ_MFLDS_3D_RL: read field: "dEtaHdt ", #  10 in fldList, rec= 402
(PID.TID 0000.0001)  MDS_READ_FIELD: opening global file: pickup.0000000001.data
(PID.TID 0000.0001) READ_MFLDS_3D_RL: read field: "EtaH    ", #  11 in fldList, rec= 403
(PID.TID 0000.0001)  MDS_READ_FIELD: opening global file: pickup.0000000001.data
(PID.TID 0000.0001) READ_MFLDS_CHECK: - normal end ; reset MFLDS file-name: pickup.0000000001
(PID.TID 0000.0001)  MDS_READ_FIELD: opening global file: geothermalFlux.bin
(PID.TID 0000.0001)  write diagnostics summary to file ioUnit:     36
Iter.Nb:         1 ; Time(s):  9.0000000000000E+02
------------------------------------------------------------------------
2D/3D diagnostics: Number of lists:     3
------------------------------------------------------------------------
listId=    1 ; file name: surfDiag
 nFlds, nActive,       freq     &     phase        , nLev               
   10  |   10  |      3600.000000         0.000000 |   1
 levels:   1
 diag# | name   |   ipt  |  iMate | kLev|   count |   mate.C|           
    86 |oceQnet |      1 |      0 |   1 |       0 |
    87 |oceQsw  |      2 |      0 |   1 |       0 |
    84 |oceFWflx|      3 |      0 |   1 |       0 |
    85 |oceSflux|      4 |      0 |   1 |       0 |
    80 |oceTAUX |      5 |      6 |   1 |       0 |       0 |
    81 |oceTAUY |      6 |      5 |   1 |       0 |       0 |
    26 |THETA   |      7 |      0 |  50 |       0 |
    27 |SALT    |     57 |      0 |  50 |       0 |
    30 |UVEL    |    107 |    157 |  50 |       0 |       0 |
    31 |VVEL    |    157 |    107 |  50 |       0 |       0 |
------------------------------------------------------------------------
listId=    2 ; file name: iceDiag
 nFlds, nActive,       freq     &     phase        , nLev               
    8  |    8  |      3600.000000         0.000000 |   1
 levels:   1
 diag# | name   |   ipt  |  iMate | kLev|   count |   mate.C|           
   214 |SIarea  |    207 |      0 |   1 |       0 |
   217 |SIheff  |    208 |      0 |   1 |       0 |
   219 |SIhsnow |    209 |      0 |   1 |       0 |
    83 |sIceLoad|    210 |      0 |   1 |       0 |
   223 |SIuice  |    211 |    212 |   1 |       0 |       0 |
   224 |SIvice  |    212 |    211 |   1 |       0 |       0 |
   225 |SItaux  |    213 |    214 |   1 |       0 |       0 |
   226 |SItauy  |    214 |    213 |   1 |       0 |       0 |
------------------------------------------------------------------------
listId=    3 ; file name: iceNcat
 nFlds, nActive,       freq     &     phase        , nLev               
    3  |    3  |      3600.000000         0.000000 |   5
 levels:   1   2   3   4   5
 diag# | name   |   ipt  |  iMate | kLev|   count |   mate.C|           
   285 |SIareaN |    215 |      0 |   5 |       0 |
   284 |SIheffN |    220 |      0 |   5 |       0 |
   286 |SIhsnowN|    225 |      0 |   5 |       0 |
------------------------------------------------------------------------
Global & Regional Statistics diagnostics: Number of lists:     1
------------------------------------------------------------------------
listId=   1 ; file name: iceStDiag
 nFlds, nActive,       freq     &     phase        |                    
    8  |    8  |       900.000000         0.000000 |
 Regions:   0
 diag# | name   |   ipt  |  iMate |    Volume   |   mate-Vol. |         
   214 |SIarea  |      1 |      0 | 0.00000E+00 |
   217 |SIheff  |      2 |      0 | 0.00000E+00 |
   219 |SIhsnow |      3 |      0 | 0.00000E+00 |
    83 |sIceLoad|      4 |      0 | 0.00000E+00 |
   223 |SIuice  |      5 |      0 | 0.00000E+00 |
   224 |SIvice  |      6 |      0 | 0.00000E+00 |
   225 |SItaux  |      7 |      0 | 0.00000E+00 |
   226 |SItauy  |      8 |      0 | 0.00000E+00 |
------------------------------------------------------------------------
(PID.TID 0000.0001)  MDS_READ_FIELD: opening global file: pickup_ggl90.0000000001.data
(PID.TID 0000.0001)  MDS_READ_META: opening file: pickup_seaice.0000000001.meta
(PID.TID 0000.0001)  nRecords =   6 ; filePrec =  64 ; fileIter =     17532
(PID.TID 0000.0001)     nDims =   2 , dims:
(PID.TID 0000.0001)    1:  90   1  90
(PID.TID 0000.0001)    2:1170   11170
(PID.TID 0000.0001)     nFlds =   6 , nFl3D =   0 , fields:
(PID.TID 0000.0001)  >siTICE  < >siAREA  < >siHEFF  < >siHSNOW < >siUICE  < >siVICE  <
(PID.TID 0000.0001) missingVal=  1.00000000000000E+00 ; nTimRec =   1 , timeList:
(PID.TID 0000.0001)   6.311520000000E+07
(PID.TID 0000.0001) READ_MFLDS_3D_RL: field: "siTICES " missing in file: pickup_seaice.0000000001
(PID.TID 0000.0001) READ_MFLDS_LEV_RL: read field: "siTICE  ", #   1 in fldList, rec=   1
(PID.TID 0000.0001)  MDS_READ_FIELD: opening global file: pickup_seaice.0000000001.data
(PID.TID 0000.0001) READ_MFLDS_3D_RL: field: "siAREAn " missing in file: pickup_seaice.0000000001
(PID.TID 0000.0001) READ_MFLDS_3D_RL: read field: "siAREA  ", #   2 in fldList, rec=   2
(PID.TID 0000.0001)  MDS_READ_FIELD: opening global file: pickup_seaice.0000000001.data
(PID.TID 0000.0001) READ_MFLDS_3D_RL: read field: "siHEFF  ", #   3 in fldList, rec=   3
(PID.TID 0000.0001)  MDS_READ_FIELD: opening global file: pickup_seaice.0000000001.data
(PID.TID 0000.0001) READ_MFLDS_3D_RL: read field: "siHSNOW ", #   4 in fldList, rec=   4
(PID.TID 0000.0001)  MDS_READ_FIELD: opening global file: pickup_seaice.0000000001.data
(PID.TID 0000.0001) READ_MFLDS_3D_RL: read field: "siUICE  ", #   5 in fldList, rec=   5
(PID.TID 0000.0001)  MDS_READ_FIELD: opening global file: pickup_seaice.0000000001.data
(PID.TID 0000.0001) READ_MFLDS_3D_RL: read field: "siVICE  ", #   6 in fldList, rec=   6
(PID.TID 0000.0001)  MDS_READ_FIELD: opening global file: pickup_seaice.0000000001.data
(PID.TID 0000.0001)  MDS_READ_FIELD: opening global file: wt_ones.data
(PID.TID 0000.0001)  MDS_READ_FIELD: opening global file: xx_kapgm.0000000012.data
(PID.TID 0000.0001)  MDS_READ_FIELD: opening global file: wt_ones.data
(PID.TID 0000.0001)  MDS_READ_FIELD: opening global file: xx_kapredi.0000000012.data
(PID.TID 0000.0001)  MDS_READ_FIELD: opening global file: wt_ones.data
(PID.TID 0000.0001)  MDS_READ_FIELD: opening global file: xx_diffkr.0000000012.data
(PID.TID 0000.0001) // =======================================================
(PID.TID 0000.0001) // Model current state
(PID.TID 0000.0001) // =======================================================
(PID.TID 0000.0001) 
(PID.TID 0000.0001) SOLVE_FOR_PRESSURE: putPmEinXvector =    F
 cg2d: Sum(rhs),rhsMax =   4.77878886618839E+01  3.22132500454422E-01
 Compute Stats, Diag. #    214  SIarea    vol(   0 ): 3.580E+14  Parms: SM      M1      
 Compute Stats, Diag. #    217  SIheff    vol(   0 ): 3.580E+14  Parms: SM      M1      
 Compute Stats, Diag. #    219  SIhsnow   vol(   0 ): 3.580E+14  Parms: SM      M1      
 Compute Stats, Diag. #     83  sIceLoad  vol(   0 ): 3.580E+14  Parms: SM      U1      
 Compute Stats, Diag. #    223  SIuice    vol(   0 ): 3.513E+14  Parms: UU      M1      
 Compute Stats, Diag. #    224  SIvice    vol(   0 ): 3.508E+14  Parms: VV      M1      
 Compute Stats, Diag. #    225  SItaux    vol(   0 ): 3.513E+14  Parms: UU      U1      
 Compute Stats, Diag. #    226  SItauy    vol(   0 ): 3.508E+14  Parms: VV      U1      
 cg2d: Sum(rhs),rhsMax =   4.74946075852495E+01  3.19415314561934E-01
 Compute Stats, Diag. #    214  SIarea    vol(   0 ): 3.580E+14  Parms: SM      M1      
 Compute Stats, Diag. #    217  SIheff    vol(   0 ): 3.580E+14  Parms: SM      M1      
 Compute Stats, Diag. #    219  SIhsnow   vol(   0 ): 3.580E+14  Parms: SM      M1      
 Compute Stats, Diag. #     83  sIceLoad  vol(   0 ): 3.580E+14  Parms: SM      U1      
 Compute Stats, Diag. #    223  SIuice    vol(   0 ): 3.513E+14  Parms: UU      M1      
 Compute Stats, Diag. #    224  SIvice    vol(   0 ): 3.508E+14  Parms: VV      M1      
 Compute Stats, Diag. #    225  SItaux    vol(   0 ): 3.513E+14  Parms: UU      U1      
 Compute Stats, Diag. #    226  SItauy    vol(   0 ): 3.508E+14  Parms: VV      U1      
 cg2d: Sum(rhs),rhsMax =   4.82297881575814E+01  3.25335555769356E-01
 Computing Diagnostic #     86  oceQnet      Counter:       3   Parms: SM      U1      
 Computing Diagnostic #     87  oceQsw       Counter:       3   Parms: SM      U1      
 Computing Diagnostic #     84  oceFWflx     Counter:       3   Parms: SM      U1      
 Computing Diagnostic #     85  oceSflux     Counter:       3   Parms: SM      U1      
 Computing Diagnostic #     80  oceTAUX      Counter:       3   Parms: UU      U1      
           Vector  Mate for  oceTAUX      Diagnostic #     81  oceTAUY  exists 
 Computing Diagnostic #     81  oceTAUY      Counter:       3   Parms: VV      U1      
           Vector  Mate for  oceTAUY      Diagnostic #     80  oceTAUX  exists 
 Computing Diagnostic #     26  THETA        Counter:       3   Parms: SMR     MR      
 Computing Diagnostic #     27  SALT         Counter:       3   Parms: SMR     MR      
 Computing Diagnostic #     30  UVEL         Counter:       3   Parms: UUR     MR      
           Vector  Mate for  UVEL         Diagnostic #     31  VVEL     exists 
 Computing Diagnostic #     31  VVEL         Counter:       3   Parms: VVR     MR      
           Vector  Mate for  VVEL         Diagnostic #     30  UVEL     exists 
 Computing Diagnostic #    214  SIarea       Counter:       3   Parms: SM      M1      
 Computing Diagnostic #    217  SIheff       Counter:       3   Parms: SM      M1      
 Computing Diagnostic #    219  SIhsnow      Counter:       3   Parms: SM      M1      
 Computing Diagnostic #     83  sIceLoad     Counter:       3   Parms: SM      U1      
 Computing Diagnostic #    223  SIuice       Counter:       3   Parms: UU      M1      
           Vector  Mate for  SIuice       Diagnostic #    224  SIvice   exists 
 Computing Diagnostic #    224  SIvice       Counter:       3   Parms: VV      M1      
           Vector  Mate for  SIvice       Diagnostic #    223  SIuice   exists 
 Computing Diagnostic #    225  SItaux       Counter:       3   Parms: UU      U1      
           Vector  Mate for  SItaux       Diagnostic #    226  SItauy   exists 
 Computing Diagnostic #    226  SItauy       Counter:       3   Parms: VV      U1      
           Vector  Mate for  SItauy       Diagnostic #    225  SItaux   exists 
 Computing Diagnostic #    285  SIareaN      Counter:       3   Parms: SM      MX      
 Computing Diagnostic #    284  SIheffN      Counter:       3   Parms: SM      MX      
 Computing Diagnostic #    286  SIhsnowN     Counter:       3   Parms: SM      MX      
 Compute Stats, Diag. #    214  SIarea    vol(   0 ): 3.580E+14  Parms: SM      M1      
 Compute Stats, Diag. #    217  SIheff    vol(   0 ): 3.580E+14  Parms: SM      M1      
 Compute Stats, Diag. #    219  SIhsnow   vol(   0 ): 3.580E+14  Parms: SM      M1      
 Compute Stats, Diag. #     83  sIceLoad  vol(   0 ): 3.580E+14  Parms: SM      U1      
 Compute Stats, Diag. #    223  SIuice    vol(   0 ): 3.513E+14  Parms: UU      M1      
 Compute Stats, Diag. #    224  SIvice    vol(   0 ): 3.508E+14  Parms: VV      M1      
 Compute Stats, Diag. #    225  SItaux    vol(   0 ): 3.513E+14  Parms: UU      U1      
 Compute Stats, Diag. #    226  SItauy    vol(   0 ): 3.508E+14  Parms: VV      U1      
 cg2d: Sum(rhs),rhsMax =   4.91759392022505E+01  3.24691650053985E-01
 Compute Stats, Diag. #    214  SIarea    vol(   0 ): 3.580E+14  Parms: SM      M1      
 Compute Stats, Diag. #    217  SIheff    vol(   0 ): 3.580E+14  Parms: SM      M1      
 Compute Stats, Diag. #    219  SIhsnow   vol(   0 ): 3.580E+14  Parms: SM      M1      
 Compute Stats, Diag. #     83  sIceLoad  vol(   0 ): 3.580E+14  Parms: SM      U1      
 Compute Stats, Diag. #    223  SIuice    vol(   0 ): 3.513E+14  Parms: UU      M1      
 Compute Stats, Diag. #    224  SIvice    vol(   0 ): 3.508E+14  Parms: VV      M1      
 Compute Stats, Diag. #    225  SItaux    vol(   0 ): 3.513E+14  Parms: UU      U1      
 Compute Stats, Diag. #    226  SItauy    vol(   0 ): 3.508E+14  Parms: VV      U1      
 cg2d: Sum(rhs),rhsMax =   5.01694465792182E+01  3.19234002804537E-01
 Compute Stats, Diag. #    214  SIarea    vol(   0 ): 3.580E+14  Parms: SM      M1      
 Compute Stats, Diag. #    217  SIheff    vol(   0 ): 3.580E+14  Parms: SM      M1      
 Compute Stats, Diag. #    219  SIhsnow   vol(   0 ): 3.580E+14  Parms: SM      M1      
 Compute Stats, Diag. #     83  sIceLoad  vol(   0 ): 3.580E+14  Parms: SM      U1      
 Compute Stats, Diag. #    223  SIuice    vol(   0 ): 3.513E+14  Parms: UU      M1      
 Compute Stats, Diag. #    224  SIvice    vol(   0 ): 3.508E+14  Parms: VV      M1      
 Compute Stats, Diag. #    225  SItaux    vol(   0 ): 3.513E+14  Parms: UU      U1      
 Compute Stats, Diag. #    226  SItauy    vol(   0 ): 3.508E+14  Parms: VV      U1      
 cg2d: Sum(rhs),rhsMax =   5.11928711659858E+01  3.12579015020393E-01
 Compute Stats, Diag. #    214  SIarea    vol(   0 ): 3.580E+14  Parms: SM      M1      
 Compute Stats, Diag. #    217  SIheff    vol(   0 ): 3.580E+14  Parms: SM      M1      
 Compute Stats, Diag. #    219  SIhsnow   vol(   0 ): 3.580E+14  Parms: SM      M1      
 Compute Stats, Diag. #     83  sIceLoad  vol(   0 ): 3.580E+14  Parms: SM      U1      
 Compute Stats, Diag. #    223  SIuice    vol(   0 ): 3.513E+14  Parms: UU      M1      
 Compute Stats, Diag. #    224  SIvice    vol(   0 ): 3.508E+14  Parms: VV      M1      
 Compute Stats, Diag. #    225  SItaux    vol(   0 ): 3.513E+14  Parms: UU      U1      
 Compute Stats, Diag. #    226  SItauy    vol(   0 ): 3.508E+14  Parms: VV      U1      
 cg2d: Sum(rhs),rhsMax =   5.22693069511070E+01  3.09599638914379E-01
(PID.TID 0000.0001)      cg2d_init_res =   1.14663824078751E+00
(PID.TID 0000.0001)      cg2d_iters(min,last) =      -1      37
(PID.TID 0000.0001)      cg2d_last_res =   2.43212513064357E-05
(PID.TID 0000.0001) // =======================================================
(PID.TID 0000.0001) // Begin MONITOR dynamic field statistics
(PID.TID 0000.0001) // =======================================================
(PID.TID 0000.0001) %MON time_tsnumber                =                     8
(PID.TID 0000.0001) %MON time_secondsf                =   7.2000000000000E+03
(PID.TID 0000.0001) %MON dynstat_eta_max              =   1.1502213362864E+00
(PID.TID 0000.0001) %MON dynstat_eta_min              =  -4.5780775975811E+00
(PID.TID 0000.0001) %MON dynstat_eta_mean             =  -1.6534451159534E-03
(PID.TID 0000.0001) %MON dynstat_eta_sd               =   7.3555719330609E-01
(PID.TID 0000.0001) %MON dynstat_eta_del2             =   1.2275854574072E-04
(PID.TID 0000.0001) %MON dynstat_uvel_max             =   9.1802484804894E-01
(PID.TID 0000.0001) %MON dynstat_uvel_min             =  -1.1418126871672E+00
(PID.TID 0000.0001) %MON dynstat_uvel_mean            =   1.8204460553909E-03
(PID.TID 0000.0001) %MON dynstat_uvel_sd              =   2.1843618162510E-02
(PID.TID 0000.0001) %MON dynstat_uvel_del2            =   1.7391879891902E-05
(PID.TID 0000.0001) %MON dynstat_vvel_max             =   8.4206575319220E-01
(PID.TID 0000.0001) %MON dynstat_vvel_min             =  -9.4548539701487E-01
(PID.TID 0000.0001) %MON dynstat_vvel_mean            =   1.2399255979815E-03
(PID.TID 0000.0001) %MON dynstat_vvel_sd              =   2.3851887132129E-02
(PID.TID 0000.0001) %MON dynstat_vvel_del2            =   1.8680577323100E-05
(PID.TID 0000.0001) %MON dynstat_wvel_max             =   1.8656967076936E-03
(PID.TID 0000.0001) %MON dynstat_wvel_min             =  -1.4974426944386E-03
(PID.TID 0000.0001) %MON dynstat_wvel_mean            =   8.7196953316594E-08
(PID.TID 0000.0001) %MON dynstat_wvel_sd              =   3.3465984203517E-05
(PID.TID 0000.0001) %MON dynstat_wvel_del2            =   4.3286682089047E-08
(PID.TID 0000.0001) %MON dynstat_theta_max            =   3.2663509011853E+01
(PID.TID 0000.0001) %MON dynstat_theta_min            =  -2.0421616787855E+00
(PID.TID 0000.0001) %MON dynstat_theta_mean           =   3.5905905790144E+00
(PID.TID 0000.0001) %MON dynstat_theta_sd             =   4.4366030808553E+00
(PID.TID 0000.0001) %MON dynstat_theta_del2           =   1.0937982365001E-04
(PID.TID 0000.0001) %MON dynstat_salt_max             =   4.0711526586520E+01
(PID.TID 0000.0001) %MON dynstat_salt_min             =   1.8893596444968E+01
(PID.TID 0000.0001) %MON dynstat_salt_mean            =   3.4725774742099E+01
(PID.TID 0000.0001) %MON dynstat_salt_sd              =   3.7776380877199E-01
(PID.TID 0000.0001) %MON dynstat_salt_del2            =   2.7028983741541E-05
(PID.TID 0000.0001) %MON dynstat_sst_max              =   3.2663509011853E+01
(PID.TID 0000.0001) %MON dynstat_sst_min              =  -1.9524580754646E+00
(PID.TID 0000.0001) %MON dynstat_sst_mean             =   1.8503803335208E+01
(PID.TID 0000.0001) %MON dynstat_sst_sd               =   1.0093618920465E+01
(PID.TID 0000.0001) %MON dynstat_sst_del2             =   8.8084935933913E-04
(PID.TID 0000.0001) %MON dynstat_sss_max              =   3.9666468058401E+01
(PID.TID 0000.0001) %MON dynstat_sss_min              =   1.8893596444968E+01
(PID.TID 0000.0001) %MON dynstat_sss_mean             =   3.4713422469852E+01
(PID.TID 0000.0001) %MON dynstat_sss_sd               =   1.1591840951293E+00
(PID.TID 0000.0001) %MON dynstat_sss_del2             =   3.9200168739727E-04
(PID.TID 0000.0001) %MON forcing_qnet_max             =   1.6770771484375E+03
(PID.TID 0000.0001) %MON forcing_qnet_min             =  -1.2690740217257E+03
(PID.TID 0000.0001) %MON forcing_qnet_mean            =  -2.3461018103849E+01
(PID.TID 0000.0001) %MON forcing_qnet_sd              =   2.2371443838345E+02
(PID.TID 0000.0001) %MON forcing_qnet_del2            =   4.2651530313329E-01
(PID.TID 0000.0001) %MON forcing_qsw_max              =   0.0000000000000E+00
(PID.TID 0000.0001) %MON forcing_qsw_min              =  -1.1192433483387E+02
(PID.TID 0000.0001) %MON forcing_qsw_mean             =  -2.2457514302082E+01
(PID.TID 0000.0001) %MON forcing_qsw_sd               =   3.0400647510986E+01
(PID.TID 0000.0001) %MON forcing_qsw_del2             =   2.3169751467496E-02
(PID.TID 0000.0001) %MON forcing_empmr_max            =   3.7056477740407E-03
(PID.TID 0000.0001) %MON forcing_empmr_min            =  -9.1365620493889E-02
(PID.TID 0000.0001) %MON forcing_empmr_mean           =   3.8931759714552E-05
(PID.TID 0000.0001) %MON forcing_empmr_sd             =   5.7422145086243E-04
(PID.TID 0000.0001) %MON forcing_empmr_del2           =   3.9431970479813E-06
(PID.TID 0000.0001) %MON forcing_fu_max               =   1.3900370001793E+00
(PID.TID 0000.0001) %MON forcing_fu_min               =  -1.3724166750908E+00
(PID.TID 0000.0001) %MON forcing_fu_mean              =   1.0535414039740E-02
(PID.TID 0000.0001) %MON forcing_fu_sd                =   1.2725034600442E-01
(PID.TID 0000.0001) %MON forcing_fu_del2              =   1.8402112121847E-04
(PID.TID 0000.0001) %MON forcing_fv_max               =   8.9954179525375E-01
(PID.TID 0000.0001) %MON forcing_fv_min               =  -8.3974239230156E-01
(PID.TID 0000.0001) %MON forcing_fv_mean              =  -6.0798278510450E-03
(PID.TID 0000.0001) %MON forcing_fv_sd                =   1.2101421506361E-01
(PID.TID 0000.0001) %MON forcing_fv_del2              =   1.5233364553628E-04
(PID.TID 0000.0001) %MON trAdv_CFL_u_max              =   2.4614001450606E-02
(PID.TID 0000.0001) %MON trAdv_CFL_v_max              =   2.4576349005567E-02
(PID.TID 0000.0001) %MON trAdv_CFL_w_max              =   8.2937446987031E-02
(PID.TID 0000.0001) %MON advcfl_uvel_max              =   2.3088765914478E-02
(PID.TID 0000.0001) %MON advcfl_vvel_max              =   2.1448305549960E-02
(PID.TID 0000.0001) %MON advcfl_wvel_max              =   8.3449702670114E-02
(PID.TID 0000.0001) %MON advcfl_W_hf_max              =   8.3783860053221E-02
(PID.TID 0000.0001) %MON pe_b_mean                    =   7.1169441080829E-04
(PID.TID 0000.0001) %MON ke_max                       =   6.6158166901091E-01
(PID.TID 0000.0001) %MON ke_mean                      =   5.0674412352843E-04
(PID.TID 0000.0001) %MON ke_vol                       =   1.3349972971738E+18
(PID.TID 0000.0001) %MON vort_r_min                   =  -4.8300413063635E-05
(PID.TID 0000.0001) %MON vort_r_max                   =   3.4235562322240E-05
(PID.TID 0000.0001) %MON vort_a_mean                  =  -1.9727864647440E-05
(PID.TID 0000.0001) %MON vort_a_sd                    =   7.4543398782725E-05
(PID.TID 0000.0001) %MON vort_p_mean                  =  -2.1760538005049E-05
(PID.TID 0000.0001) %MON vort_p_sd                    =   9.7241242043939E-05
(PID.TID 0000.0001) %MON surfExpan_theta_mean         =  -2.2742974240343E-06
(PID.TID 0000.0001) %MON surfExpan_salt_mean          =  -2.8822853796625E-07
(PID.TID 0000.0001) // =======================================================
(PID.TID 0000.0001) // End MONITOR dynamic field statistics
(PID.TID 0000.0001) // =======================================================
(PID.TID 0000.0001) // =======================================================
(PID.TID 0000.0001) // Begin MONITOR SEAICE statistics
(PID.TID 0000.0001) // =======================================================
(PID.TID 0000.0001) %MON seaice_tsnumber              =                     8
(PID.TID 0000.0001) %MON seaice_time_sec              =   7.2000000000000E+03
(PID.TID 0000.0001) %MON seaice_uice_max              =   4.0000000000000E-01
(PID.TID 0000.0001) %MON seaice_uice_min              =  -4.0000000000000E-01
(PID.TID 0000.0001) %MON seaice_uice_mean             =  -8.3054598624025E-03
(PID.TID 0000.0001) %MON seaice_uice_sd               =   1.9802383574176E-01
(PID.TID 0000.0001) %MON seaice_uice_del2             =   2.2931571122150E-04
(PID.TID 0000.0001) %MON seaice_vice_max              =   4.0000000000000E-01
(PID.TID 0000.0001) %MON seaice_vice_min              =  -4.0000000000000E-01
(PID.TID 0000.0001) %MON seaice_vice_mean             =  -2.1960776359499E-02
(PID.TID 0000.0001) %MON seaice_vice_sd               =   2.1302038025672E-01
(PID.TID 0000.0001) %MON seaice_vice_del2             =   2.3932563818061E-04
(PID.TID 0000.0001) %MON seaice_area_max              =   1.0000000000000E+00
(PID.TID 0000.0001) %MON seaice_area_min              =   0.0000000000000E+00
(PID.TID 0000.0001) %MON seaice_area_mean             =   7.2939316233740E-02
(PID.TID 0000.0001) %MON seaice_area_sd               =   2.3791302923177E-01
(PID.TID 0000.0001) %MON seaice_area_del2             =   4.7814152646195E-04
(PID.TID 0000.0001) %MON seaice_heff_max              =   2.5308191714110E+01
(PID.TID 0000.0001) %MON seaice_heff_min              =   0.0000000000000E+00
(PID.TID 0000.0001) %MON seaice_heff_mean             =   2.1599205104203E-01
(PID.TID 0000.0001) %MON seaice_heff_sd               =   1.0620507284461E+00
(PID.TID 0000.0001) %MON seaice_heff_del2             =   3.9242684473958E-03
(PID.TID 0000.0001) %MON seaice_hsnow_max             =   8.3587921057915E+00
(PID.TID 0000.0001) %MON seaice_hsnow_min             =   0.0000000000000E+00
(PID.TID 0000.0001) %MON seaice_hsnow_mean            =   2.4666030243433E-02
(PID.TID 0000.0001) %MON seaice_hsnow_sd              =   1.5817793703456E-01
(PID.TID 0000.0001) %MON seaice_hsnow_del2            =   1.2574306064681E-03
(PID.TID 0000.0001) // =======================================================
(PID.TID 0000.0001) // End MONITOR SEAICE statistics
(PID.TID 0000.0001) // =======================================================
 Computing Diagnostic #     86  oceQnet      Counter:       4   Parms: SM      U1      
 Computing Diagnostic #     87  oceQsw       Counter:       4   Parms: SM      U1      
 Computing Diagnostic #     84  oceFWflx     Counter:       4   Parms: SM      U1      
 Computing Diagnostic #     85  oceSflux     Counter:       4   Parms: SM      U1      
 Computing Diagnostic #     80  oceTAUX      Counter:       4   Parms: UU      U1      
           Vector  Mate for  oceTAUX      Diagnostic #     81  oceTAUY  exists 
 Computing Diagnostic #     81  oceTAUY      Counter:       4   Parms: VV      U1      
           Vector  Mate for  oceTAUY      Diagnostic #     80  oceTAUX  exists 
 Computing Diagnostic #     26  THETA        Counter:       4   Parms: SMR     MR      
 Computing Diagnostic #     27  SALT         Counter:       4   Parms: SMR     MR      
 Computing Diagnostic #     30  UVEL         Counter:       4   Parms: UUR     MR      
           Vector  Mate for  UVEL         Diagnostic #     31  VVEL     exists 
 Computing Diagnostic #     31  VVEL         Counter:       4   Parms: VVR     MR      
           Vector  Mate for  VVEL         Diagnostic #     30  UVEL     exists 
 Computing Diagnostic #    214  SIarea       Counter:       4   Parms: SM      M1      
 Computing Diagnostic #    217  SIheff       Counter:       4   Parms: SM      M1      
 Computing Diagnostic #    219  SIhsnow      Counter:       4   Parms: SM      M1      
 Computing Diagnostic #     83  sIceLoad     Counter:       4   Parms: SM      U1      
 Computing Diagnostic #    223  SIuice       Counter:       4   Parms: UU      M1      
           Vector  Mate for  SIuice       Diagnostic #    224  SIvice   exists 
 Computing Diagnostic #    224  SIvice       Counter:       4   Parms: VV      M1      
           Vector  Mate for  SIvice       Diagnostic #    223  SIuice   exists 
 Computing Diagnostic #    225  SItaux       Counter:       4   Parms: UU      U1      
           Vector  Mate for  SItaux       Diagnostic #    226  SItauy   exists 
 Computing Diagnostic #    226  SItauy       Counter:       4   Parms: VV      U1      
           Vector  Mate for  SItauy       Diagnostic #    225  SItaux   exists 
 Computing Diagnostic #    285  SIareaN      Counter:       4   Parms: SM      MX      
 Computing Diagnostic #    284  SIheffN      Counter:       4   Parms: SM      MX      
 Computing Diagnostic #    286  SIhsnowN     Counter:       4   Parms: SM      MX      
 Compute Stats, Diag. #    214  SIarea    vol(   0 ): 3.580E+14  Parms: SM      M1      
 Compute Stats, Diag. #    217  SIheff    vol(   0 ): 3.580E+14  Parms: SM      M1      
 Compute Stats, Diag. #    219  SIhsnow   vol(   0 ): 3.580E+14  Parms: SM      M1      
 Compute Stats, Diag. #     83  sIceLoad  vol(   0 ): 3.580E+14  Parms: SM      U1      
 Compute Stats, Diag. #    223  SIuice    vol(   0 ): 3.513E+14  Parms: UU      M1      
 Compute Stats, Diag. #    224  SIvice    vol(   0 ): 3.508E+14  Parms: VV      M1      
 Compute Stats, Diag. #    225  SItaux    vol(   0 ): 3.513E+14  Parms: UU      U1      
 Compute Stats, Diag. #    226  SItauy    vol(   0 ): 3.508E+14  Parms: VV      U1      
 cg2d: Sum(rhs),rhsMax =   5.33808430600238E+01  3.06957280490533E-01
 Compute Stats, Diag. #    214  SIarea    vol(   0 ): 3.580E+14  Parms: SM      M1      
 Compute Stats, Diag. #    217  SIheff    vol(   0 ): 3.580E+14  Parms: SM      M1      
 Compute Stats, Diag. #    219  SIhsnow   vol(   0 ): 3.580E+14  Parms: SM      M1      
 Compute Stats, Diag. #     83  sIceLoad  vol(   0 ): 3.580E+14  Parms: SM      U1      
 Compute Stats, Diag. #    223  SIuice    vol(   0 ): 3.513E+14  Parms: UU      M1      
 Compute Stats, Diag. #    224  SIvice    vol(   0 ): 3.508E+14  Parms: VV      M1      
 Compute Stats, Diag. #    225  SItaux    vol(   0 ): 3.513E+14  Parms: UU      U1      
 Compute Stats, Diag. #    226  SItauy    vol(   0 ): 3.508E+14  Parms: VV      U1      
 cg2d: Sum(rhs),rhsMax =   5.45102468718912E+01  3.03950629995344E-01
 Compute Stats, Diag. #    214  SIarea    vol(   0 ): 3.580E+14  Parms: SM      M1      
 Compute Stats, Diag. #    217  SIheff    vol(   0 ): 3.580E+14  Parms: SM      M1      
 Compute Stats, Diag. #    219  SIhsnow   vol(   0 ): 3.580E+14  Parms: SM      M1      
 Compute Stats, Diag. #     83  sIceLoad  vol(   0 ): 3.580E+14  Parms: SM      U1      
 Compute Stats, Diag. #    223  SIuice    vol(   0 ): 3.513E+14  Parms: UU      M1      
 Compute Stats, Diag. #    224  SIvice    vol(   0 ): 3.508E+14  Parms: VV      M1      
 Compute Stats, Diag. #    225  SItaux    vol(   0 ): 3.513E+14  Parms: UU      U1      
 Compute Stats, Diag. #    226  SItauy    vol(   0 ): 3.508E+14  Parms: VV      U1      
 cg2d: Sum(rhs),rhsMax =   5.56335213183173E+01  3.00902553521104E-01
 Compute Stats, Diag. #    214  SIarea    vol(   0 ): 3.580E+14  Parms: SM      M1      
 Compute Stats, Diag. #    217  SIheff    vol(   0 ): 3.580E+14  Parms: SM      M1      
 Compute Stats, Diag. #    219  SIhsnow   vol(   0 ): 3.580E+14  Parms: SM      M1      
 Compute Stats, Diag. #     83  sIceLoad  vol(   0 ): 3.580E+14  Parms: SM      U1      
 Compute Stats, Diag. #    223  SIuice    vol(   0 ): 3.513E+14  Parms: UU      M1      
 Compute Stats, Diag. #    224  SIvice    vol(   0 ): 3.508E+14  Parms: VV      M1      
 Compute Stats, Diag. #    225  SItaux    vol(   0 ): 3.513E+14  Parms: UU      U1      
 Compute Stats, Diag. #    226  SItauy    vol(   0 ): 3.508E+14  Parms: VV      U1      
 cg2d: Sum(rhs),rhsMax =   5.67360411508369E+01  2.98077167828265E-01
 Computing Diagnostic #     86  oceQnet      Counter:       4   Parms: SM      U1      
 Computing Diagnostic #     87  oceQsw       Counter:       4   Parms: SM      U1      
 Computing Diagnostic #     84  oceFWflx     Counter:       4   Parms: SM      U1      
 Computing Diagnostic #     85  oceSflux     Counter:       4   Parms: SM      U1      
 Computing Diagnostic #     80  oceTAUX      Counter:       4   Parms: UU      U1      
           Vector  Mate for  oceTAUX      Diagnostic #     81  oceTAUY  exists 
 Computing Diagnostic #     81  oceTAUY      Counter:       4   Parms: VV      U1      
           Vector  Mate for  oceTAUY      Diagnostic #     80  oceTAUX  exists 
 Computing Diagnostic #     26  THETA        Counter:       4   Parms: SMR     MR      
 Computing Diagnostic #     27  SALT         Counter:       4   Parms: SMR     MR      
 Computing Diagnostic #     30  UVEL         Counter:       4   Parms: UUR     MR      
           Vector  Mate for  UVEL         Diagnostic #     31  VVEL     exists 
 Computing Diagnostic #     31  VVEL         Counter:       4   Parms: VVR     MR      
           Vector  Mate for  VVEL         Diagnostic #     30  UVEL     exists 
 Computing Diagnostic #    214  SIarea       Counter:       4   Parms: SM      M1      
 Computing Diagnostic #    217  SIheff       Counter:       4   Parms: SM      M1      
 Computing Diagnostic #    219  SIhsnow      Counter:       4   Parms: SM      M1      
 Computing Diagnostic #     83  sIceLoad     Counter:       4   Parms: SM      U1      
 Computing Diagnostic #    223  SIuice       Counter:       4   Parms: UU      M1      
           Vector  Mate for  SIuice       Diagnostic #    224  SIvice   exists 
 Computing Diagnostic #    224  SIvice       Counter:       4   Parms: VV      M1      
           Vector  Mate for  SIvice       Diagnostic #    223  SIuice   exists 
 Computing Diagnostic #    225  SItaux       Counter:       4   Parms: UU      U1      
           Vector  Mate for  SItaux       Diagnostic #    226  SItauy   exists 
 Computing Diagnostic #    226  SItauy       Counter:       4   Parms: VV      U1      
           Vector  Mate for  SItauy       Diagnostic #    225  SItaux   exists 
 Computing Diagnostic #    285  SIareaN      Counter:       4   Parms: SM      MX      
 Computing Diagnostic #    284  SIheffN      Counter:       4   Parms: SM      MX      
 Computing Diagnostic #    286  SIhsnowN     Counter:       4   Parms: SM      MX      
 Compute Stats, Diag. #    214  SIarea    vol(   0 ): 3.580E+14  Parms: SM      M1      
 Compute Stats, Diag. #    217  SIheff    vol(   0 ): 3.580E+14  Parms: SM      M1      
 Compute Stats, Diag. #    219  SIhsnow   vol(   0 ): 3.580E+14  Parms: SM      M1      
 Compute Stats, Diag. #     83  sIceLoad  vol(   0 ): 3.580E+14  Parms: SM      U1      
 Compute Stats, Diag. #    223  SIuice    vol(   0 ): 3.513E+14  Parms: UU      M1      
 Compute Stats, Diag. #    224  SIvice    vol(   0 ): 3.508E+14  Parms: VV      M1      
 Compute Stats, Diag. #    225  SItaux    vol(   0 ): 3.513E+14  Parms: UU      U1      
 Compute Stats, Diag. #    226  SItauy    vol(   0 ): 3.508E+14  Parms: VV      U1      
 cg2d: Sum(rhs),rhsMax =   5.78077140757129E+01  2.95631243967237E-01
 Compute Stats, Diag. #    214  SIarea    vol(   0 ): 3.580E+14  Parms: SM      M1      
 Compute Stats, Diag. #    217  SIheff    vol(   0 ): 3.580E+14  Parms: SM      M1      
 Compute Stats, Diag. #    219  SIhsnow   vol(   0 ): 3.580E+14  Parms: SM      M1      
 Compute Stats, Diag. #     83  sIceLoad  vol(   0 ): 3.580E+14  Parms: SM      U1      
 Compute Stats, Diag. #    223  SIuice    vol(   0 ): 3.513E+14  Parms: UU      M1      
 Compute Stats, Diag. #    224  SIvice    vol(   0 ): 3.508E+14  Parms: VV      M1      
 Compute Stats, Diag. #    225  SItaux    vol(   0 ): 3.513E+14  Parms: UU      U1      
 Compute Stats, Diag. #    226  SItauy    vol(   0 ): 3.508E+14  Parms: VV      U1      
 cg2d: Sum(rhs),rhsMax =   5.88426144558028E+01  2.93624098118089E-01
 Compute Stats, Diag. #    214  SIarea    vol(   0 ): 3.580E+14  Parms: SM      M1      
 Compute Stats, Diag. #    217  SIheff    vol(   0 ): 3.580E+14  Parms: SM      M1      
 Compute Stats, Diag. #    219  SIhsnow   vol(   0 ): 3.580E+14  Parms: SM      M1      
 Compute Stats, Diag. #     83  sIceLoad  vol(   0 ): 3.580E+14  Parms: SM      U1      
 Compute Stats, Diag. #    223  SIuice    vol(   0 ): 3.513E+14  Parms: UU      M1      
 Compute Stats, Diag. #    224  SIvice    vol(   0 ): 3.508E+14  Parms: VV      M1      
 Compute Stats, Diag. #    225  SItaux    vol(   0 ): 3.513E+14  Parms: UU      U1      
 Compute Stats, Diag. #    226  SItauy    vol(   0 ): 3.508E+14  Parms: VV      U1      
 cg2d: Sum(rhs),rhsMax =   5.98401750922402E+01  2.92050238822043E-01
 Compute Stats, Diag. #    214  SIarea    vol(   0 ): 3.580E+14  Parms: SM      M1      
 Compute Stats, Diag. #    217  SIheff    vol(   0 ): 3.580E+14  Parms: SM      M1      
 Compute Stats, Diag. #    219  SIhsnow   vol(   0 ): 3.580E+14  Parms: SM      M1      
 Compute Stats, Diag. #     83  sIceLoad  vol(   0 ): 3.580E+14  Parms: SM      U1      
 Compute Stats, Diag. #    223  SIuice    vol(   0 ): 3.513E+14  Parms: UU      M1      
 Compute Stats, Diag. #    224  SIvice    vol(   0 ): 3.508E+14  Parms: VV      M1      
 Compute Stats, Diag. #    225  SItaux    vol(   0 ): 3.513E+14  Parms: UU      U1      
 Compute Stats, Diag. #    226  SItauy    vol(   0 ): 3.508E+14  Parms: VV      U1      
 cg2d: Sum(rhs),rhsMax =   6.07956790280120E+01  2.90853938561563E-01
(PID.TID 0000.0001)      cg2d_init_res =   8.05195990551138E-01
(PID.TID 0000.0001)      cg2d_iters(min,last) =      -1      34
(PID.TID 0000.0001)      cg2d_last_res =   2.45920481954158E-05
(PID.TID 0000.0001) // =======================================================
(PID.TID 0000.0001) // Begin MONITOR dynamic field statistics
(PID.TID 0000.0001) // =======================================================
(PID.TID 0000.0001) %MON time_tsnumber                =                    16
(PID.TID 0000.0001) %MON time_secondsf                =   1.4400000000000E+04
(PID.TID 0000.0001) %MON dynstat_eta_max              =   1.1855540824581E+00
(PID.TID 0000.0001) %MON dynstat_eta_min              =  -4.2588942906221E+00
(PID.TID 0000.0001) %MON dynstat_eta_mean             =  -1.9231614961715E-03
(PID.TID 0000.0001) %MON dynstat_eta_sd               =   7.2635979732824E-01
(PID.TID 0000.0001) %MON dynstat_eta_del2             =   1.0815343070122E-04
(PID.TID 0000.0001) %MON dynstat_uvel_max             =   8.9729424706247E-01
(PID.TID 0000.0001) %MON dynstat_uvel_min             =  -1.2621747515018E+00
(PID.TID 0000.0001) %MON dynstat_uvel_mean            =   1.9616708814376E-03
(PID.TID 0000.0001) %MON dynstat_uvel_sd              =   2.1973506047277E-02
(PID.TID 0000.0001) %MON dynstat_uvel_del2            =   1.5535945014268E-05
(PID.TID 0000.0001) %MON dynstat_vvel_max             =   1.0916648140685E+00
(PID.TID 0000.0001) %MON dynstat_vvel_min             =  -1.1105710268976E+00
(PID.TID 0000.0001) %MON dynstat_vvel_mean            =   1.1992238127466E-03
(PID.TID 0000.0001) %MON dynstat_vvel_sd              =   2.3763390372054E-02
(PID.TID 0000.0001) %MON dynstat_vvel_del2            =   1.6841221124644E-05
(PID.TID 0000.0001) %MON dynstat_wvel_max             =   2.3585959797108E-03
(PID.TID 0000.0001) %MON dynstat_wvel_min             =  -2.6489447560642E-03
(PID.TID 0000.0001) %MON dynstat_wvel_mean            =  -1.2148365658905E-08
(PID.TID 0000.0001) %MON dynstat_wvel_sd              =   3.2138150573844E-05
(PID.TID 0000.0001) %MON dynstat_wvel_del2            =   4.0341880546078E-08
(PID.TID 0000.0001) %MON dynstat_theta_max            =   3.2659355676742E+01
(PID.TID 0000.0001) %MON dynstat_theta_min            =  -2.0421809373510E+00
(PID.TID 0000.0001) %MON dynstat_theta_mean           =   3.5906035802102E+00
(PID.TID 0000.0001) %MON dynstat_theta_sd             =   4.4366253848517E+00
(PID.TID 0000.0001) %MON dynstat_theta_del2           =   1.0902460462821E-04
(PID.TID 0000.0001) %MON dynstat_salt_max             =   4.0711523205744E+01
(PID.TID 0000.0001) %MON dynstat_salt_min             =   1.8873222833246E+01
(PID.TID 0000.0001) %MON dynstat_salt_mean            =   3.4725724937847E+01
(PID.TID 0000.0001) %MON dynstat_salt_sd              =   3.7757450304234E-01
(PID.TID 0000.0001) %MON dynstat_salt_del2            =   2.7066250087592E-05
(PID.TID 0000.0001) %MON dynstat_sst_max              =   3.2659355676742E+01
(PID.TID 0000.0001) %MON dynstat_sst_min              =  -1.9437067086725E+00
(PID.TID 0000.0001) %MON dynstat_sst_mean             =   1.8504018718375E+01
(PID.TID 0000.0001) %MON dynstat_sst_sd               =   1.0096869189941E+01
(PID.TID 0000.0001) %MON dynstat_sst_del2             =   8.7616889035486E-04
(PID.TID 0000.0001) %MON dynstat_sss_max              =   3.9618060051990E+01
(PID.TID 0000.0001) %MON dynstat_sss_min              =   1.8873222833246E+01
(PID.TID 0000.0001) %MON dynstat_sss_mean             =   3.4697971180738E+01
(PID.TID 0000.0001) %MON dynstat_sss_sd               =   1.1424300486009E+00
(PID.TID 0000.0001) %MON dynstat_sss_del2             =   4.0881695992314E-04
(PID.TID 0000.0001) %MON forcing_qnet_max             =   1.0093748168945E+03
(PID.TID 0000.0001) %MON forcing_qnet_min             =  -1.0768705667710E+03
(PID.TID 0000.0001) %MON forcing_qnet_mean            =  -2.3248146952215E+01
(PID.TID 0000.0001) %MON forcing_qnet_sd              =   2.2461789328381E+02
(PID.TID 0000.0001) %MON forcing_qnet_del2            =   4.3069913289284E-01
(PID.TID 0000.0001) %MON forcing_qsw_max              =   0.0000000000000E+00
(PID.TID 0000.0001) %MON forcing_qsw_min              =  -1.1026005489778E+02
(PID.TID 0000.0001) %MON forcing_qsw_mean             =  -2.1542157756389E+01
(PID.TID 0000.0001) %MON forcing_qsw_sd               =   3.0194986186671E+01
(PID.TID 0000.0001) %MON forcing_qsw_del2             =   2.1942353136940E-02
(PID.TID 0000.0001) %MON forcing_empmr_max            =   3.5508899018168E-03
(PID.TID 0000.0001) %MON forcing_empmr_min            =  -7.1248367428780E-02
(PID.TID 0000.0001) %MON forcing_empmr_mean           =   3.4557983066033E-05
(PID.TID 0000.0001) %MON forcing_empmr_sd             =   4.6424886510629E-04
(PID.TID 0000.0001) %MON forcing_empmr_del2           =   3.1014225913889E-06
(PID.TID 0000.0001) %MON forcing_fu_max               =   1.2863758802414E+00
(PID.TID 0000.0001) %MON forcing_fu_min               =  -1.2517755031586E+00
(PID.TID 0000.0001) %MON forcing_fu_mean              =   1.0180309900097E-02
(PID.TID 0000.0001) %MON forcing_fu_sd                =   1.2397439052428E-01
(PID.TID 0000.0001) %MON forcing_fu_del2              =   1.7786477793232E-04
(PID.TID 0000.0001) %MON forcing_fv_max               =   7.8976368904114E-01
(PID.TID 0000.0001) %MON forcing_fv_min               =  -7.6995557546615E-01
(PID.TID 0000.0001) %MON forcing_fv_mean              =  -5.4046397435789E-03
(PID.TID 0000.0001) %MON forcing_fv_sd                =   1.1673300536881E-01
(PID.TID 0000.0001) %MON forcing_fv_del2              =   1.4944600009948E-04
(PID.TID 0000.0001) %MON trAdv_CFL_u_max              =   2.6350277683942E-02
(PID.TID 0000.0001) %MON trAdv_CFL_v_max              =   2.2309637000390E-02
(PID.TID 0000.0001) %MON trAdv_CFL_w_max              =   7.0887824454966E-02
(PID.TID 0000.0001) %MON advcfl_uvel_max              =   2.4701701883229E-02
(PID.TID 0000.0001) %MON advcfl_vvel_max              =   2.4337519708857E-02
(PID.TID 0000.0001) %MON advcfl_wvel_max              =   7.1448516370549E-02
(PID.TID 0000.0001) %MON advcfl_W_hf_max              =   7.1734232984872E-02
(PID.TID 0000.0001) %MON pe_b_mean                    =   6.9400906096380E-04
(PID.TID 0000.0001) %MON ke_max                       =   7.3700712298088E-01
(PID.TID 0000.0001) %MON ke_mean                      =   5.0766536617079E-04
(PID.TID 0000.0001) %MON ke_vol                       =   1.3349971992420E+18
(PID.TID 0000.0001) %MON vort_r_min                   =  -5.4067430900444E-05
(PID.TID 0000.0001) %MON vort_r_max                   =   4.1846137341121E-05
(PID.TID 0000.0001) %MON vort_a_mean                  =  -1.9727864647440E-05
(PID.TID 0000.0001) %MON vort_a_sd                    =   7.4543383330560E-05
(PID.TID 0000.0001) %MON vort_p_mean                  =  -2.1760540260253E-05
(PID.TID 0000.0001) %MON vort_p_sd                    =   9.7242465044505E-05
(PID.TID 0000.0001) %MON surfExpan_theta_mean         =  -2.6418027258088E-06
(PID.TID 0000.0001) %MON surfExpan_salt_mean          =  -3.5124523255971E-07
(PID.TID 0000.0001) // =======================================================
(PID.TID 0000.0001) // End MONITOR dynamic field statistics
(PID.TID 0000.0001) // =======================================================
(PID.TID 0000.0001) // =======================================================
(PID.TID 0000.0001) // Begin MONITOR SEAICE statistics
(PID.TID 0000.0001) // =======================================================
(PID.TID 0000.0001) %MON seaice_tsnumber              =                    16
(PID.TID 0000.0001) %MON seaice_time_sec              =   1.4400000000000E+04
(PID.TID 0000.0001) %MON seaice_uice_max              =   4.0000000000000E-01
(PID.TID 0000.0001) %MON seaice_uice_min              =  -4.0000000000000E-01
(PID.TID 0000.0001) %MON seaice_uice_mean             =  -8.3054598624025E-03
(PID.TID 0000.0001) %MON seaice_uice_sd               =   1.9802383574176E-01
(PID.TID 0000.0001) %MON seaice_uice_del2             =   2.2931571122150E-04
(PID.TID 0000.0001) %MON seaice_vice_max              =   4.0000000000000E-01
(PID.TID 0000.0001) %MON seaice_vice_min              =  -4.0000000000000E-01
(PID.TID 0000.0001) %MON seaice_vice_mean             =  -2.1960776359499E-02
(PID.TID 0000.0001) %MON seaice_vice_sd               =   2.1302038025672E-01
(PID.TID 0000.0001) %MON seaice_vice_del2             =   2.3932563818061E-04
(PID.TID 0000.0001) %MON seaice_area_max              =   1.0000000000000E+00
(PID.TID 0000.0001) %MON seaice_area_min              =   0.0000000000000E+00
(PID.TID 0000.0001) %MON seaice_area_mean             =   7.2481572613521E-02
(PID.TID 0000.0001) %MON seaice_area_sd               =   2.3783415608166E-01
(PID.TID 0000.0001) %MON seaice_area_del2             =   4.7689704575149E-04
(PID.TID 0000.0001) %MON seaice_heff_max              =   2.5295247816714E+01
(PID.TID 0000.0001) %MON seaice_heff_min              =   0.0000000000000E+00
(PID.TID 0000.0001) %MON seaice_heff_mean             =   2.1632506365769E-01
(PID.TID 0000.0001) %MON seaice_heff_sd               =   1.0644351180818E+00
(PID.TID 0000.0001) %MON seaice_heff_del2             =   3.9229537798843E-03
(PID.TID 0000.0001) %MON seaice_hsnow_max             =   8.3545189742727E+00
(PID.TID 0000.0001) %MON seaice_hsnow_min             =   0.0000000000000E+00
(PID.TID 0000.0001) %MON seaice_hsnow_mean            =   2.4650995036145E-02
(PID.TID 0000.0001) %MON seaice_hsnow_sd              =   1.5814000106991E-01
(PID.TID 0000.0001) %MON seaice_hsnow_del2            =   1.2571307905232E-03
(PID.TID 0000.0001) // =======================================================
(PID.TID 0000.0001) // End MONITOR SEAICE statistics
(PID.TID 0000.0001) // =======================================================
 Computing Diagnostic #     86  oceQnet      Counter:       4   Parms: SM      U1      
 Computing Diagnostic #     87  oceQsw       Counter:       4   Parms: SM      U1      
 Computing Diagnostic #     84  oceFWflx     Counter:       4   Parms: SM      U1      
 Computing Diagnostic #     85  oceSflux     Counter:       4   Parms: SM      U1      
 Computing Diagnostic #     80  oceTAUX      Counter:       4   Parms: UU      U1      
           Vector  Mate for  oceTAUX      Diagnostic #     81  oceTAUY  exists 
 Computing Diagnostic #     81  oceTAUY      Counter:       4   Parms: VV      U1      
           Vector  Mate for  oceTAUY      Diagnostic #     80  oceTAUX  exists 
 Computing Diagnostic #     26  THETA        Counter:       4   Parms: SMR     MR      
 Computing Diagnostic #     27  SALT         Counter:       4   Parms: SMR     MR      
 Computing Diagnostic #     30  UVEL         Counter:       4   Parms: UUR     MR      
           Vector  Mate for  UVEL         Diagnostic #     31  VVEL     exists 
 Computing Diagnostic #     31  VVEL         Counter:       4   Parms: VVR     MR      
           Vector  Mate for  VVEL         Diagnostic #     30  UVEL     exists 
 Computing Diagnostic #    214  SIarea       Counter:       4   Parms: SM      M1      
 Computing Diagnostic #    217  SIheff       Counter:       4   Parms: SM      M1      
 Computing Diagnostic #    219  SIhsnow      Counter:       4   Parms: SM      M1      
 Computing Diagnostic #     83  sIceLoad     Counter:       4   Parms: SM      U1      
 Computing Diagnostic #    223  SIuice       Counter:       4   Parms: UU      M1      
           Vector  Mate for  SIuice       Diagnostic #    224  SIvice   exists 
 Computing Diagnostic #    224  SIvice       Counter:       4   Parms: VV      M1      
           Vector  Mate for  SIvice       Diagnostic #    223  SIuice   exists 
 Computing Diagnostic #    225  SItaux       Counter:       4   Parms: UU      U1      
           Vector  Mate for  SItaux       Diagnostic #    226  SItauy   exists 
 Computing Diagnostic #    226  SItauy       Counter:       4   Parms: VV      U1      
           Vector  Mate for  SItauy       Diagnostic #    225  SItaux   exists 
 Computing Diagnostic #    285  SIareaN      Counter:       4   Parms: SM      MX      
 Computing Diagnostic #    284  SIheffN      Counter:       4   Parms: SM      MX      
 Computing Diagnostic #    286  SIhsnowN     Counter:       4   Parms: SM      MX      
 Compute Stats, Diag. #    214  SIarea    vol(   0 ): 3.580E+14  Parms: SM      M1      
 Compute Stats, Diag. #    217  SIheff    vol(   0 ): 3.580E+14  Parms: SM      M1      
 Compute Stats, Diag. #    219  SIhsnow   vol(   0 ): 3.580E+14  Parms: SM      M1      
 Compute Stats, Diag. #     83  sIceLoad  vol(   0 ): 3.580E+14  Parms: SM      U1      
 Compute Stats, Diag. #    223  SIuice    vol(   0 ): 3.513E+14  Parms: UU      M1      
 Compute Stats, Diag. #    224  SIvice    vol(   0 ): 3.508E+14  Parms: VV      M1      
 Compute Stats, Diag. #    225  SItaux    vol(   0 ): 3.513E+14  Parms: UU      U1      
 Compute Stats, Diag. #    226  SItauy    vol(   0 ): 3.508E+14  Parms: VV      U1      
 cg2d: Sum(rhs),rhsMax =   6.17104038926318E+01  2.89953061025946E-01
 Compute Stats, Diag. #    214  SIarea    vol(   0 ): 3.580E+14  Parms: SM      M1      
 Compute Stats, Diag. #    217  SIheff    vol(   0 ): 3.580E+14  Parms: SM      M1      
 Compute Stats, Diag. #    219  SIhsnow   vol(   0 ): 3.580E+14  Parms: SM      M1      
 Compute Stats, Diag. #     83  sIceLoad  vol(   0 ): 3.580E+14  Parms: SM      U1      
 Compute Stats, Diag. #    223  SIuice    vol(   0 ): 3.513E+14  Parms: UU      M1      
 Compute Stats, Diag. #    224  SIvice    vol(   0 ): 3.508E+14  Parms: VV      M1      
 Compute Stats, Diag. #    225  SItaux    vol(   0 ): 3.513E+14  Parms: UU      U1      
 Compute Stats, Diag. #    226  SItauy    vol(   0 ): 3.508E+14  Parms: VV      U1      
 cg2d: Sum(rhs),rhsMax =   6.25825718382870E+01  2.89258986275548E-01
 Compute Stats, Diag. #    214  SIarea    vol(   0 ): 3.580E+14  Parms: SM      M1      
 Compute Stats, Diag. #    217  SIheff    vol(   0 ): 3.580E+14  Parms: SM      M1      
 Compute Stats, Diag. #    219  SIhsnow   vol(   0 ): 3.580E+14  Parms: SM      M1      
 Compute Stats, Diag. #     83  sIceLoad  vol(   0 ): 3.580E+14  Parms: SM      U1      
 Compute Stats, Diag. #    223  SIuice    vol(   0 ): 3.513E+14  Parms: UU      M1      
 Compute Stats, Diag. #    224  SIvice    vol(   0 ): 3.508E+14  Parms: VV      M1      
 Compute Stats, Diag. #    225  SItaux    vol(   0 ): 3.513E+14  Parms: UU      U1      
 Compute Stats, Diag. #    226  SItauy    vol(   0 ): 3.508E+14  Parms: VV      U1      
 cg2d: Sum(rhs),rhsMax =   6.34151522924548E+01  2.88693321209709E-01
 Compute Stats, Diag. #    214  SIarea    vol(   0 ): 3.580E+14  Parms: SM      M1      
 Compute Stats, Diag. #    217  SIheff    vol(   0 ): 3.580E+14  Parms: SM      M1      
 Compute Stats, Diag. #    219  SIhsnow   vol(   0 ): 3.580E+14  Parms: SM      M1      
 Compute Stats, Diag. #     83  sIceLoad  vol(   0 ): 3.580E+14  Parms: SM      U1      
 Compute Stats, Diag. #    223  SIuice    vol(   0 ): 3.513E+14  Parms: UU      M1      
 Compute Stats, Diag. #    224  SIvice    vol(   0 ): 3.508E+14  Parms: VV      M1      
 Compute Stats, Diag. #    225  SItaux    vol(   0 ): 3.513E+14  Parms: UU      U1      
 Compute Stats, Diag. #    226  SItauy    vol(   0 ): 3.508E+14  Parms: VV      U1      
 cg2d: Sum(rhs),rhsMax =   6.42036876229335E+01  2.88216315268538E-01
 Computing Diagnostic #     86  oceQnet      Counter:       4   Parms: SM      U1      
 Computing Diagnostic #     87  oceQsw       Counter:       4   Parms: SM      U1      
 Computing Diagnostic #     84  oceFWflx     Counter:       4   Parms: SM      U1      
 Computing Diagnostic #     85  oceSflux     Counter:       4   Parms: SM      U1      
 Computing Diagnostic #     80  oceTAUX      Counter:       4   Parms: UU      U1      
           Vector  Mate for  oceTAUX      Diagnostic #     81  oceTAUY  exists 
 Computing Diagnostic #     81  oceTAUY      Counter:       4   Parms: VV      U1      
           Vector  Mate for  oceTAUY      Diagnostic #     80  oceTAUX  exists 
 Computing Diagnostic #     26  THETA        Counter:       4   Parms: SMR     MR      
 Computing Diagnostic #     27  SALT         Counter:       4   Parms: SMR     MR      
 Computing Diagnostic #     30  UVEL         Counter:       4   Parms: UUR     MR      
           Vector  Mate for  UVEL         Diagnostic #     31  VVEL     exists 
 Computing Diagnostic #     31  VVEL         Counter:       4   Parms: VVR     MR      
           Vector  Mate for  VVEL         Diagnostic #     30  UVEL     exists 
 Computing Diagnostic #    214  SIarea       Counter:       4   Parms: SM      M1      
 Computing Diagnostic #    217  SIheff       Counter:       4   Parms: SM      M1      
 Computing Diagnostic #    219  SIhsnow      Counter:       4   Parms: SM      M1      
 Computing Diagnostic #     83  sIceLoad     Counter:       4   Parms: SM      U1      
 Computing Diagnostic #    223  SIuice       Counter:       4   Parms: UU      M1      
           Vector  Mate for  SIuice       Diagnostic #    224  SIvice   exists 
 Computing Diagnostic #    224  SIvice       Counter:       4   Parms: VV      M1      
           Vector  Mate for  SIvice       Diagnostic #    223  SIuice   exists 
 Computing Diagnostic #    225  SItaux       Counter:       4   Parms: UU      U1      
           Vector  Mate for  SItaux       Diagnostic #    226  SItauy   exists 
 Computing Diagnostic #    226  SItauy       Counter:       4   Parms: VV      U1      
           Vector  Mate for  SItauy       Diagnostic #    225  SItaux   exists 
 Computing Diagnostic #    285  SIareaN      Counter:       4   Parms: SM      MX      
 Computing Diagnostic #    284  SIheffN      Counter:       4   Parms: SM      MX      
 Computing Diagnostic #    286  SIhsnowN     Counter:       4   Parms: SM      MX      
 Compute Stats, Diag. #    214  SIarea    vol(   0 ): 3.580E+14  Parms: SM      M1      
 Compute Stats, Diag. #    217  SIheff    vol(   0 ): 3.580E+14  Parms: SM      M1      
 Compute Stats, Diag. #    219  SIhsnow   vol(   0 ): 3.580E+14  Parms: SM      M1      
 Compute Stats, Diag. #     83  sIceLoad  vol(   0 ): 3.580E+14  Parms: SM      U1      
 Compute Stats, Diag. #    223  SIuice    vol(   0 ): 3.513E+14  Parms: UU      M1      
 Compute Stats, Diag. #    224  SIvice    vol(   0 ): 3.508E+14  Parms: VV      M1      
 Compute Stats, Diag. #    225  SItaux    vol(   0 ): 3.513E+14  Parms: UU      U1      
 Compute Stats, Diag. #    226  SItauy    vol(   0 ): 3.508E+14  Parms: VV      U1      
 cg2d: Sum(rhs),rhsMax =   6.49523848509896E+01  2.87837606969107E-01
 Compute Stats, Diag. #    214  SIarea    vol(   0 ): 3.580E+14  Parms: SM      M1      
 Compute Stats, Diag. #    217  SIheff    vol(   0 ): 3.580E+14  Parms: SM      M1      
 Compute Stats, Diag. #    219  SIhsnow   vol(   0 ): 3.580E+14  Parms: SM      M1      
 Compute Stats, Diag. #     83  sIceLoad  vol(   0 ): 3.580E+14  Parms: SM      U1      
 Compute Stats, Diag. #    223  SIuice    vol(   0 ): 3.513E+14  Parms: UU      M1      
 Compute Stats, Diag. #    224  SIvice    vol(   0 ): 3.508E+14  Parms: VV      M1      
 Compute Stats, Diag. #    225  SItaux    vol(   0 ): 3.513E+14  Parms: UU      U1      
 Compute Stats, Diag. #    226  SItauy    vol(   0 ): 3.508E+14  Parms: VV      U1      
 cg2d: Sum(rhs),rhsMax =   6.56664683264516E+01  2.87608825015265E-01
 Compute Stats, Diag. #    214  SIarea    vol(   0 ): 3.580E+14  Parms: SM      M1      
 Compute Stats, Diag. #    217  SIheff    vol(   0 ): 3.580E+14  Parms: SM      M1      
 Compute Stats, Diag. #    219  SIhsnow   vol(   0 ): 3.580E+14  Parms: SM      M1      
 Compute Stats, Diag. #     83  sIceLoad  vol(   0 ): 3.580E+14  Parms: SM      U1      
 Compute Stats, Diag. #    223  SIuice    vol(   0 ): 3.513E+14  Parms: UU      M1      
 Compute Stats, Diag. #    224  SIvice    vol(   0 ): 3.508E+14  Parms: VV      M1      
 Compute Stats, Diag. #    225  SItaux    vol(   0 ): 3.513E+14  Parms: UU      U1      
 Compute Stats, Diag. #    226  SItauy    vol(   0 ): 3.508E+14  Parms: VV      U1      
 cg2d: Sum(rhs),rhsMax =   6.63385715625486E+01  2.87606427466995E-01
 Compute Stats, Diag. #    214  SIarea    vol(   0 ): 3.580E+14  Parms: SM      M1      
 Compute Stats, Diag. #    217  SIheff    vol(   0 ): 3.580E+14  Parms: SM      M1      
 Compute Stats, Diag. #    219  SIhsnow   vol(   0 ): 3.580E+14  Parms: SM      M1      
 Compute Stats, Diag. #     83  sIceLoad  vol(   0 ): 3.580E+14  Parms: SM      U1      
 Compute Stats, Diag. #    223  SIuice    vol(   0 ): 3.513E+14  Parms: UU      M1      
 Compute Stats, Diag. #    224  SIvice    vol(   0 ): 3.508E+14  Parms: VV      M1      
 Compute Stats, Diag. #    225  SItaux    vol(   0 ): 3.513E+14  Parms: UU      U1      
 Compute Stats, Diag. #    226  SItauy    vol(   0 ): 3.508E+14  Parms: VV      U1      
 cg2d: Sum(rhs),rhsMax =   6.69735546256099E+01  2.87905653738655E-01
(PID.TID 0000.0001)      cg2d_init_res =   6.17856564255805E-01
(PID.TID 0000.0001)      cg2d_iters(min,last) =      -1      34
(PID.TID 0000.0001)      cg2d_last_res =   2.47190522645486E-05
(PID.TID 0000.0001) // =======================================================
(PID.TID 0000.0001) // Begin MONITOR dynamic field statistics
(PID.TID 0000.0001) // =======================================================
(PID.TID 0000.0001) %MON time_tsnumber                =                    24
(PID.TID 0000.0001) %MON time_secondsf                =   2.1600000000000E+04
(PID.TID 0000.0001) %MON dynstat_eta_max              =   1.1301984256786E+00
(PID.TID 0000.0001) %MON dynstat_eta_min              =  -3.9996131506738E+00
(PID.TID 0000.0001) %MON dynstat_eta_mean             =  -2.1185874321492E-03
(PID.TID 0000.0001) %MON dynstat_eta_sd               =   7.2117695979997E-01
(PID.TID 0000.0001) %MON dynstat_eta_del2             =   9.8982162922990E-05
(PID.TID 0000.0001) %MON dynstat_uvel_max             =   9.1891909527082E-01
(PID.TID 0000.0001) %MON dynstat_uvel_min             =  -1.3578533907915E+00
(PID.TID 0000.0001) %MON dynstat_uvel_mean            =   1.9008468064782E-03
(PID.TID 0000.0001) %MON dynstat_uvel_sd              =   2.2045522553555E-02
(PID.TID 0000.0001) %MON dynstat_uvel_del2            =   1.4471797601260E-05
(PID.TID 0000.0001) %MON dynstat_vvel_max             =   1.1521467843485E+00
(PID.TID 0000.0001) %MON dynstat_vvel_min             =  -1.0590462874252E+00
(PID.TID 0000.0001) %MON dynstat_vvel_mean            =   1.2857519765160E-03
(PID.TID 0000.0001) %MON dynstat_vvel_sd              =   2.3644360375645E-02
(PID.TID 0000.0001) %MON dynstat_vvel_del2            =   1.5602058363470E-05
(PID.TID 0000.0001) %MON dynstat_wvel_max             =   2.4612821206183E-03
(PID.TID 0000.0001) %MON dynstat_wvel_min             =  -3.6376165213125E-03
(PID.TID 0000.0001) %MON dynstat_wvel_mean            =   4.1745989625256E-08
(PID.TID 0000.0001) %MON dynstat_wvel_sd              =   3.3733523316717E-05
(PID.TID 0000.0001) %MON dynstat_wvel_del2            =   4.5475374375387E-08
(PID.TID 0000.0001) %MON dynstat_theta_max            =   3.2656749531081E+01
(PID.TID 0000.0001) %MON dynstat_theta_min            =  -2.0422115511964E+00
(PID.TID 0000.0001) %MON dynstat_theta_mean           =   3.5906085376681E+00
(PID.TID 0000.0001) %MON dynstat_theta_sd             =   4.4366315477843E+00
(PID.TID 0000.0001) %MON dynstat_theta_del2           =   1.0858843687786E-04
(PID.TID 0000.0001) %MON dynstat_salt_max             =   4.0711521892967E+01
(PID.TID 0000.0001) %MON dynstat_salt_min             =   1.8856720068585E+01
(PID.TID 0000.0001) %MON dynstat_salt_mean            =   3.4725693978439E+01
(PID.TID 0000.0001) %MON dynstat_salt_sd              =   3.7744468770855E-01
(PID.TID 0000.0001) %MON dynstat_salt_del2            =   2.7097806198207E-05
(PID.TID 0000.0001) %MON dynstat_sst_max              =   3.2656749531081E+01
(PID.TID 0000.0001) %MON dynstat_sst_min              =  -1.9417254798011E+00
(PID.TID 0000.0001) %MON dynstat_sst_mean             =   1.8502345075637E+01
(PID.TID 0000.0001) %MON dynstat_sst_sd               =   1.0100820446063E+01
(PID.TID 0000.0001) %MON dynstat_sst_del2             =   8.7329885791115E-04
(PID.TID 0000.0001) %MON dynstat_sss_max              =   3.9575142154069E+01
(PID.TID 0000.0001) %MON dynstat_sss_min              =   1.8856720068585E+01
(PID.TID 0000.0001) %MON dynstat_sss_mean             =   3.4690253000068E+01
(PID.TID 0000.0001) %MON dynstat_sss_sd               =   1.1329307562127E+00
(PID.TID 0000.0001) %MON dynstat_sss_del2             =   4.2587924512840E-04
(PID.TID 0000.0001) %MON forcing_qnet_max             =   3.2730886230469E+03
(PID.TID 0000.0001) %MON forcing_qnet_min             =  -9.4877904240138E+02
(PID.TID 0000.0001) %MON forcing_qnet_mean            =   1.7634616764717E+00
(PID.TID 0000.0001) %MON forcing_qnet_sd              =   2.0718398985712E+02
(PID.TID 0000.0001) %MON forcing_qnet_del2            =   5.0746321420323E-01
(PID.TID 0000.0001) %MON forcing_qsw_max              =   0.0000000000000E+00
(PID.TID 0000.0001) %MON forcing_qsw_min              =  -1.1177413291104E+02
(PID.TID 0000.0001) %MON forcing_qsw_mean             =  -1.8797622705943E+01
(PID.TID 0000.0001) %MON forcing_qsw_sd               =   2.7458368484666E+01
(PID.TID 0000.0001) %MON forcing_qsw_del2             =   2.2187138103864E-02
(PID.TID 0000.0001) %MON forcing_empmr_max            =   3.5007901024073E-03
(PID.TID 0000.0001) %MON forcing_empmr_min            =  -7.3365248739719E-02
(PID.TID 0000.0001) %MON forcing_empmr_mean           =   2.2965613347006E-05
(PID.TID 0000.0001) %MON forcing_empmr_sd             =   4.0553168531378E-04
(PID.TID 0000.0001) %MON forcing_empmr_del2           =   3.2164890487456E-06
(PID.TID 0000.0001) %MON forcing_fu_max               =   1.1645880341530E+00
(PID.TID 0000.0001) %MON forcing_fu_min               =  -1.0853803753853E+00
(PID.TID 0000.0001) %MON forcing_fu_mean              =   1.0370911242970E-02
(PID.TID 0000.0001) %MON forcing_fu_sd                =   1.1941377575037E-01
(PID.TID 0000.0001) %MON forcing_fu_del2              =   1.7023960284394E-04
(PID.TID 0000.0001) %MON forcing_fv_max               =   7.8276002407074E-01
(PID.TID 0000.0001) %MON forcing_fv_min               =  -8.0207568245838E-01
(PID.TID 0000.0001) %MON forcing_fv_mean              =  -6.0432216191141E-03
(PID.TID 0000.0001) %MON forcing_fv_sd                =   1.1366367467349E-01
(PID.TID 0000.0001) %MON forcing_fv_del2              =   1.4475120362360E-04
(PID.TID 0000.0001) %MON trAdv_CFL_u_max              =   2.2428507521272E-02
(PID.TID 0000.0001) %MON trAdv_CFL_v_max              =   2.1814794826797E-02
(PID.TID 0000.0001) %MON trAdv_CFL_w_max              =   6.7993667911744E-02
(PID.TID 0000.0001) %MON advcfl_uvel_max              =   2.3615701675559E-02
(PID.TID 0000.0001) %MON advcfl_vvel_max              =   2.3208384937615E-02
(PID.TID 0000.0001) %MON advcfl_wvel_max              =   6.9701590485442E-02
(PID.TID 0000.0001) %MON advcfl_W_hf_max              =   7.3408102532788E-02
(PID.TID 0000.0001) %MON pe_b_mean                    =   6.8414153431029E-04
(PID.TID 0000.0001) %MON ke_max                       =   8.4379456778720E-01
(PID.TID 0000.0001) %MON ke_mean                      =   5.0646272336900E-04
(PID.TID 0000.0001) %MON ke_vol                       =   1.3349971256469E+18
(PID.TID 0000.0001) %MON vort_r_min                   =  -5.1625168288617E-05
(PID.TID 0000.0001) %MON vort_r_max                   =   4.1764246913186E-05
(PID.TID 0000.0001) %MON vort_a_mean                  =  -1.9727864647440E-05
(PID.TID 0000.0001) %MON vort_a_sd                    =   7.4543370276289E-05
(PID.TID 0000.0001) %MON vort_p_mean                  =  -2.1760541590075E-05
(PID.TID 0000.0001) %MON vort_p_sd                    =   9.7243331952169E-05
(PID.TID 0000.0001) %MON surfExpan_theta_mean         =  -1.9666057374421E-06
(PID.TID 0000.0001) %MON surfExpan_salt_mean          =  -5.7502601579109E-07
(PID.TID 0000.0001) // =======================================================
(PID.TID 0000.0001) // End MONITOR dynamic field statistics
(PID.TID 0000.0001) // =======================================================
(PID.TID 0000.0001) // =======================================================
(PID.TID 0000.0001) // Begin MONITOR SEAICE statistics
(PID.TID 0000.0001) // =======================================================
(PID.TID 0000.0001) %MON seaice_tsnumber              =                    24
(PID.TID 0000.0001) %MON seaice_time_sec              =   2.1600000000000E+04
(PID.TID 0000.0001) %MON seaice_uice_max              =   4.0000000000000E-01
(PID.TID 0000.0001) %MON seaice_uice_min              =  -4.0000000000000E-01
(PID.TID 0000.0001) %MON seaice_uice_mean             =  -8.3054598624025E-03
(PID.TID 0000.0001) %MON seaice_uice_sd               =   1.9802383574176E-01
(PID.TID 0000.0001) %MON seaice_uice_del2             =   2.2931571122150E-04
(PID.TID 0000.0001) %MON seaice_vice_max              =   4.0000000000000E-01
(PID.TID 0000.0001) %MON seaice_vice_min              =  -4.0000000000000E-01
(PID.TID 0000.0001) %MON seaice_vice_mean             =  -2.1960776359499E-02
(PID.TID 0000.0001) %MON seaice_vice_sd               =   2.1302038025672E-01
(PID.TID 0000.0001) %MON seaice_vice_del2             =   2.3932563818061E-04
(PID.TID 0000.0001) %MON seaice_area_max              =   1.0000000000000E+00
(PID.TID 0000.0001) %MON seaice_area_min              =   0.0000000000000E+00
(PID.TID 0000.0001) %MON seaice_area_mean             =   7.2092061504027E-02
(PID.TID 0000.0001) %MON seaice_area_sd               =   2.3773456450271E-01
(PID.TID 0000.0001) %MON seaice_area_del2             =   4.7536202789575E-04
(PID.TID 0000.0001) %MON seaice_heff_max              =   2.5285531163216E+01
(PID.TID 0000.0001) %MON seaice_heff_min              =   0.0000000000000E+00
(PID.TID 0000.0001) %MON seaice_heff_mean             =   2.1654499473483E-01
(PID.TID 0000.0001) %MON seaice_heff_sd               =   1.0662288135935E+00
(PID.TID 0000.0001) %MON seaice_heff_del2             =   3.9217073920525E-03
(PID.TID 0000.0001) %MON seaice_hsnow_max             =   8.3513106578903E+00
(PID.TID 0000.0001) %MON seaice_hsnow_min             =   0.0000000000000E+00
(PID.TID 0000.0001) %MON seaice_hsnow_mean            =   2.4631357716448E-02
(PID.TID 0000.0001) %MON seaice_hsnow_sd              =   1.5810280529955E-01
(PID.TID 0000.0001) %MON seaice_hsnow_del2            =   1.2568283076282E-03
(PID.TID 0000.0001) // =======================================================
(PID.TID 0000.0001) // End MONITOR SEAICE statistics
(PID.TID 0000.0001) // =======================================================
 Computing Diagnostic #     86  oceQnet      Counter:       4   Parms: SM      U1      
 Computing Diagnostic #     87  oceQsw       Counter:       4   Parms: SM      U1      
 Computing Diagnostic #     84  oceFWflx     Counter:       4   Parms: SM      U1      
 Computing Diagnostic #     85  oceSflux     Counter:       4   Parms: SM      U1      
 Computing Diagnostic #     80  oceTAUX      Counter:       4   Parms: UU      U1      
           Vector  Mate for  oceTAUX      Diagnostic #     81  oceTAUY  exists 
 Computing Diagnostic #     81  oceTAUY      Counter:       4   Parms: VV      U1      
           Vector  Mate for  oceTAUY      Diagnostic #     80  oceTAUX  exists 
 Computing Diagnostic #     26  THETA        Counter:       4   Parms: SMR     MR      
 Computing Diagnostic #     27  SALT         Counter:       4   Parms: SMR     MR      
 Computing Diagnostic #     30  UVEL         Counter:       4   Parms: UUR     MR      
           Vector  Mate for  UVEL         Diagnostic #     31  VVEL     exists 
 Computing Diagnostic #     31  VVEL         Counter:       4   Parms: VVR     MR      
           Vector  Mate for  VVEL         Diagnostic #     30  UVEL     exists 
 Computing Diagnostic #    214  SIarea       Counter:       4   Parms: SM      M1      
 Computing Diagnostic #    217  SIheff       Counter:       4   Parms: SM      M1      
 Computing Diagnostic #    219  SIhsnow      Counter:       4   Parms: SM      M1      
 Computing Diagnostic #     83  sIceLoad     Counter:       4   Parms: SM      U1      
 Computing Diagnostic #    223  SIuice       Counter:       4   Parms: UU      M1      
           Vector  Mate for  SIuice       Diagnostic #    224  SIvice   exists 
 Computing Diagnostic #    224  SIvice       Counter:       4   Parms: VV      M1      
           Vector  Mate for  SIvice       Diagnostic #    223  SIuice   exists 
 Computing Diagnostic #    225  SItaux       Counter:       4   Parms: UU      U1      
           Vector  Mate for  SItaux       Diagnostic #    226  SItauy   exists 
 Computing Diagnostic #    226  SItauy       Counter:       4   Parms: VV      U1      
           Vector  Mate for  SItauy       Diagnostic #    225  SItaux   exists 
 Computing Diagnostic #    285  SIareaN      Counter:       4   Parms: SM      MX      
 Computing Diagnostic #    284  SIheffN      Counter:       4   Parms: SM      MX      
 Computing Diagnostic #    286  SIhsnowN     Counter:       4   Parms: SM      MX      
 Compute Stats, Diag. #    214  SIarea    vol(   0 ): 3.580E+14  Parms: SM      M1      
 Compute Stats, Diag. #    217  SIheff    vol(   0 ): 3.580E+14  Parms: SM      M1      
 Compute Stats, Diag. #    219  SIhsnow   vol(   0 ): 3.580E+14  Parms: SM      M1      
 Compute Stats, Diag. #     83  sIceLoad  vol(   0 ): 3.580E+14  Parms: SM      U1      
 Compute Stats, Diag. #    223  SIuice    vol(   0 ): 3.513E+14  Parms: UU      M1      
 Compute Stats, Diag. #    224  SIvice    vol(   0 ): 3.508E+14  Parms: VV      M1      
 Compute Stats, Diag. #    225  SItaux    vol(   0 ): 3.513E+14  Parms: UU      U1      
 Compute Stats, Diag. #    226  SItauy    vol(   0 ): 3.508E+14  Parms: VV      U1      
 cg2d: Sum(rhs),rhsMax =   6.75687047866551E+01  2.88553844721660E-01
 Compute Stats, Diag. #    214  SIarea    vol(   0 ): 3.580E+14  Parms: SM      M1      
 Compute Stats, Diag. #    217  SIheff    vol(   0 ): 3.580E+14  Parms: SM      M1      
 Compute Stats, Diag. #    219  SIhsnow   vol(   0 ): 3.580E+14  Parms: SM      M1      
 Compute Stats, Diag. #     83  sIceLoad  vol(   0 ): 3.580E+14  Parms: SM      U1      
 Compute Stats, Diag. #    223  SIuice    vol(   0 ): 3.513E+14  Parms: UU      M1      
 Compute Stats, Diag. #    224  SIvice    vol(   0 ): 3.508E+14  Parms: VV      M1      
 Compute Stats, Diag. #    225  SItaux    vol(   0 ): 3.513E+14  Parms: UU      U1      
 Compute Stats, Diag. #    226  SItauy    vol(   0 ): 3.508E+14  Parms: VV      U1      
 cg2d: Sum(rhs),rhsMax =   6.81351760683471E+01  2.89558716383072E-01
 Compute Stats, Diag. #    214  SIarea    vol(   0 ): 3.580E+14  Parms: SM      M1      
 Compute Stats, Diag. #    217  SIheff    vol(   0 ): 3.580E+14  Parms: SM      M1      
 Compute Stats, Diag. #    219  SIhsnow   vol(   0 ): 3.580E+14  Parms: SM      M1      
 Compute Stats, Diag. #     83  sIceLoad  vol(   0 ): 3.580E+14  Parms: SM      U1      
 Compute Stats, Diag. #    223  SIuice    vol(   0 ): 3.513E+14  Parms: UU      M1      
 Compute Stats, Diag. #    224  SIvice    vol(   0 ): 3.508E+14  Parms: VV      M1      
 Compute Stats, Diag. #    225  SItaux    vol(   0 ): 3.513E+14  Parms: UU      U1      
 Compute Stats, Diag. #    226  SItauy    vol(   0 ): 3.508E+14  Parms: VV      U1      
 cg2d: Sum(rhs),rhsMax =   6.86670905149321E+01  2.90876793257334E-01
 Compute Stats, Diag. #    214  SIarea    vol(   0 ): 3.580E+14  Parms: SM      M1      
 Compute Stats, Diag. #    217  SIheff    vol(   0 ): 3.580E+14  Parms: SM      M1      
 Compute Stats, Diag. #    219  SIhsnow   vol(   0 ): 3.580E+14  Parms: SM      M1      
 Compute Stats, Diag. #     83  sIceLoad  vol(   0 ): 3.580E+14  Parms: SM      U1      
 Compute Stats, Diag. #    223  SIuice    vol(   0 ): 3.513E+14  Parms: UU      M1      
 Compute Stats, Diag. #    224  SIvice    vol(   0 ): 3.508E+14  Parms: VV      M1      
 Compute Stats, Diag. #    225  SItaux    vol(   0 ): 3.513E+14  Parms: UU      U1      
 Compute Stats, Diag. #    226  SItauy    vol(   0 ): 3.508E+14  Parms: VV      U1      
 cg2d: Sum(rhs),rhsMax =   6.91671350524640E+01  2.92421566245903E-01
 Computing Diagnostic #     86  oceQnet      Counter:       4   Parms: SM      U1      
 Computing Diagnostic #     87  oceQsw       Counter:       4   Parms: SM      U1      
 Computing Diagnostic #     84  oceFWflx     Counter:       4   Parms: SM      U1      
 Computing Diagnostic #     85  oceSflux     Counter:       4   Parms: SM      U1      
 Computing Diagnostic #     80  oceTAUX      Counter:       4   Parms: UU      U1      
           Vector  Mate for  oceTAUX      Diagnostic #     81  oceTAUY  exists 
 Computing Diagnostic #     81  oceTAUY      Counter:       4   Parms: VV      U1      
           Vector  Mate for  oceTAUY      Diagnostic #     80  oceTAUX  exists 
 Computing Diagnostic #     26  THETA        Counter:       4   Parms: SMR     MR      
 Computing Diagnostic #     27  SALT         Counter:       4   Parms: SMR     MR      
 Computing Diagnostic #     30  UVEL         Counter:       4   Parms: UUR     MR      
           Vector  Mate for  UVEL         Diagnostic #     31  VVEL     exists 
 Computing Diagnostic #     31  VVEL         Counter:       4   Parms: VVR     MR      
           Vector  Mate for  VVEL         Diagnostic #     30  UVEL     exists 
 Computing Diagnostic #    214  SIarea       Counter:       4   Parms: SM      M1      
 Computing Diagnostic #    217  SIheff       Counter:       4   Parms: SM      M1      
 Computing Diagnostic #    219  SIhsnow      Counter:       4   Parms: SM      M1      
 Computing Diagnostic #     83  sIceLoad     Counter:       4   Parms: SM      U1      
 Computing Diagnostic #    223  SIuice       Counter:       4   Parms: UU      M1      
           Vector  Mate for  SIuice       Diagnostic #    224  SIvice   exists 
 Computing Diagnostic #    224  SIvice       Counter:       4   Parms: VV      M1      
           Vector  Mate for  SIvice       Diagnostic #    223  SIuice   exists 
 Computing Diagnostic #    225  SItaux       Counter:       4   Parms: UU      U1      
           Vector  Mate for  SItaux       Diagnostic #    226  SItauy   exists 
 Computing Diagnostic #    226  SItauy       Counter:       4   Parms: VV      U1      
           Vector  Mate for  SItauy       Diagnostic #    225  SItaux   exists 
 Computing Diagnostic #    285  SIareaN      Counter:       4   Parms: SM      MX      
 Computing Diagnostic #    284  SIheffN      Counter:       4   Parms: SM      MX      
 Computing Diagnostic #    286  SIhsnowN     Counter:       4   Parms: SM      MX      
 Compute Stats, Diag. #    214  SIarea    vol(   0 ): 3.580E+14  Parms: SM      M1      
 Compute Stats, Diag. #    217  SIheff    vol(   0 ): 3.580E+14  Parms: SM      M1      
 Compute Stats, Diag. #    219  SIhsnow   vol(   0 ): 3.580E+14  Parms: SM      M1      
 Compute Stats, Diag. #     83  sIceLoad  vol(   0 ): 3.580E+14  Parms: SM      U1      
 Compute Stats, Diag. #    223  SIuice    vol(   0 ): 3.513E+14  Parms: UU      M1      
 Compute Stats, Diag. #    224  SIvice    vol(   0 ): 3.508E+14  Parms: VV      M1      
 Compute Stats, Diag. #    225  SItaux    vol(   0 ): 3.513E+14  Parms: UU      U1      
 Compute Stats, Diag. #    226  SItauy    vol(   0 ): 3.508E+14  Parms: VV      U1      
 cg2d: Sum(rhs),rhsMax =   6.96370876917543E+01  2.94075680982791E-01
 Compute Stats, Diag. #    214  SIarea    vol(   0 ): 3.580E+14  Parms: SM      M1      
 Compute Stats, Diag. #    217  SIheff    vol(   0 ): 3.580E+14  Parms: SM      M1      
 Compute Stats, Diag. #    219  SIhsnow   vol(   0 ): 3.580E+14  Parms: SM      M1      
 Compute Stats, Diag. #     83  sIceLoad  vol(   0 ): 3.580E+14  Parms: SM      U1      
 Compute Stats, Diag. #    223  SIuice    vol(   0 ): 3.513E+14  Parms: UU      M1      
 Compute Stats, Diag. #    224  SIvice    vol(   0 ): 3.508E+14  Parms: VV      M1      
 Compute Stats, Diag. #    225  SItaux    vol(   0 ): 3.513E+14  Parms: UU      U1      
 Compute Stats, Diag. #    226  SItauy    vol(   0 ): 3.508E+14  Parms: VV      U1      
 cg2d: Sum(rhs),rhsMax =   7.00737885418479E+01  2.95706225387460E-01
 Compute Stats, Diag. #    214  SIarea    vol(   0 ): 3.580E+14  Parms: SM      M1      
 Compute Stats, Diag. #    217  SIheff    vol(   0 ): 3.580E+14  Parms: SM      M1      
 Compute Stats, Diag. #    219  SIhsnow   vol(   0 ): 3.580E+14  Parms: SM      M1      
 Compute Stats, Diag. #     83  sIceLoad  vol(   0 ): 3.580E+14  Parms: SM      U1      
 Compute Stats, Diag. #    223  SIuice    vol(   0 ): 3.513E+14  Parms: UU      M1      
 Compute Stats, Diag. #    224  SIvice    vol(   0 ): 3.508E+14  Parms: VV      M1      
 Compute Stats, Diag. #    225  SItaux    vol(   0 ): 3.513E+14  Parms: UU      U1      
 Compute Stats, Diag. #    226  SItauy    vol(   0 ): 3.508E+14  Parms: VV      U1      
 cg2d: Sum(rhs),rhsMax =   7.04736978961415E+01  2.97186816956923E-01
 Compute Stats, Diag. #    214  SIarea    vol(   0 ): 3.580E+14  Parms: SM      M1      
 Compute Stats, Diag. #    217  SIheff    vol(   0 ): 3.580E+14  Parms: SM      M1      
 Compute Stats, Diag. #    219  SIhsnow   vol(   0 ): 3.580E+14  Parms: SM      M1      
 Compute Stats, Diag. #     83  sIceLoad  vol(   0 ): 3.580E+14  Parms: SM      U1      
 Compute Stats, Diag. #    223  SIuice    vol(   0 ): 3.513E+14  Parms: UU      M1      
 Compute Stats, Diag. #    224  SIvice    vol(   0 ): 3.508E+14  Parms: VV      M1      
 Compute Stats, Diag. #    225  SItaux    vol(   0 ): 3.513E+14  Parms: UU      U1      
 Compute Stats, Diag. #    226  SItauy    vol(   0 ): 3.508E+14  Parms: VV      U1      
 cg2d: Sum(rhs),rhsMax =   7.08414938041624E+01  2.98411509613708E-01
(PID.TID 0000.0001)      cg2d_init_res =   5.56518196067449E-01
(PID.TID 0000.0001)      cg2d_iters(min,last) =      -1      34
(PID.TID 0000.0001)      cg2d_last_res =   2.78336925516047E-05
(PID.TID 0000.0001) // =======================================================
(PID.TID 0000.0001) // Begin MONITOR dynamic field statistics
(PID.TID 0000.0001) // =======================================================
(PID.TID 0000.0001) %MON time_tsnumber                =                    32
(PID.TID 0000.0001) %MON time_secondsf                =   2.8800000000000E+04
(PID.TID 0000.0001) %MON dynstat_eta_max              =   1.0927572133326E+00
(PID.TID 0000.0001) %MON dynstat_eta_min              =  -3.9488989459314E+00
(PID.TID 0000.0001) %MON dynstat_eta_mean             =  -2.2409427017448E-03
(PID.TID 0000.0001) %MON dynstat_eta_sd               =   7.1935825766283E-01
(PID.TID 0000.0001) %MON dynstat_eta_del2             =   9.4108863929152E-05
(PID.TID 0000.0001) %MON dynstat_uvel_max             =   7.4615672439464E-01
(PID.TID 0000.0001) %MON dynstat_uvel_min             =  -1.4285202438044E+00
(PID.TID 0000.0001) %MON dynstat_uvel_mean            =   1.8592827151935E-03
(PID.TID 0000.0001) %MON dynstat_uvel_sd              =   2.1985466420386E-02
(PID.TID 0000.0001) %MON dynstat_uvel_del2            =   1.3848335771466E-05
(PID.TID 0000.0001) %MON dynstat_vvel_max             =   1.1752437991819E+00
(PID.TID 0000.0001) %MON dynstat_vvel_min             =  -9.3139781445064E-01
(PID.TID 0000.0001) %MON dynstat_vvel_mean            =   1.3815397711116E-03
(PID.TID 0000.0001) %MON dynstat_vvel_sd              =   2.3474317564035E-02
(PID.TID 0000.0001) %MON dynstat_vvel_del2            =   1.4877142771069E-05
(PID.TID 0000.0001) %MON dynstat_wvel_max             =   2.8154283648128E-03
(PID.TID 0000.0001) %MON dynstat_wvel_min             =  -3.9591987323932E-03
(PID.TID 0000.0001) %MON dynstat_wvel_mean            =   7.5158636665390E-08
(PID.TID 0000.0001) %MON dynstat_wvel_sd              =   3.5327375230986E-05
(PID.TID 0000.0001) %MON dynstat_wvel_del2            =   5.0086302660092E-08
(PID.TID 0000.0001) %MON dynstat_theta_max            =   3.2661282929943E+01
(PID.TID 0000.0001) %MON dynstat_theta_min            =  -2.0422670777234E+00
(PID.TID 0000.0001) %MON dynstat_theta_mean           =   3.5906002200352E+00
(PID.TID 0000.0001) %MON dynstat_theta_sd             =   4.4365925455316E+00
(PID.TID 0000.0001) %MON dynstat_theta_del2           =   1.0806147399322E-04
(PID.TID 0000.0001) %MON dynstat_salt_max             =   4.0711521998830E+01
(PID.TID 0000.0001) %MON dynstat_salt_min             =   1.8863775614640E+01
(PID.TID 0000.0001) %MON dynstat_salt_mean            =   3.4725671620414E+01
(PID.TID 0000.0001) %MON dynstat_salt_sd              =   3.7734863733153E-01
(PID.TID 0000.0001) %MON dynstat_salt_del2            =   2.7183868785748E-05
(PID.TID 0000.0001) %MON dynstat_sst_max              =   3.2661282929943E+01
(PID.TID 0000.0001) %MON dynstat_sst_min              =  -1.9404233717604E+00
(PID.TID 0000.0001) %MON dynstat_sst_mean             =   1.8497818054032E+01
(PID.TID 0000.0001) %MON dynstat_sst_sd               =   1.0103623501691E+01
(PID.TID 0000.0001) %MON dynstat_sst_del2             =   8.7115528152989E-04
(PID.TID 0000.0001) %MON dynstat_sss_max              =   3.9537063019368E+01
(PID.TID 0000.0001) %MON dynstat_sss_min              =   1.8863775614640E+01
(PID.TID 0000.0001) %MON dynstat_sss_mean             =   3.4685976252344E+01
(PID.TID 0000.0001) %MON dynstat_sss_sd               =   1.1273546924681E+00
(PID.TID 0000.0001) %MON dynstat_sss_del2             =   4.4811065434056E-04
(PID.TID 0000.0001) %MON forcing_qnet_max             =   2.2679167480469E+03
(PID.TID 0000.0001) %MON forcing_qnet_min             =  -8.4670877183103E+02
(PID.TID 0000.0001) %MON forcing_qnet_mean            =   3.0162288910551E+01
(PID.TID 0000.0001) %MON forcing_qnet_sd              =   1.9299477314994E+02
(PID.TID 0000.0001) %MON forcing_qnet_del2            =   5.1528098993208E-01
(PID.TID 0000.0001) %MON forcing_qsw_max              =   0.0000000000000E+00
(PID.TID 0000.0001) %MON forcing_qsw_min              =  -1.0938058389085E+02
(PID.TID 0000.0001) %MON forcing_qsw_mean             =  -1.6402304697832E+01
(PID.TID 0000.0001) %MON forcing_qsw_sd               =   2.5523574713759E+01
(PID.TID 0000.0001) %MON forcing_qsw_del2             =   2.0847096158124E-02
(PID.TID 0000.0001) %MON forcing_empmr_max            =   3.0997721478343E-03
(PID.TID 0000.0001) %MON forcing_empmr_min            =  -8.0746784806252E-02
(PID.TID 0000.0001) %MON forcing_empmr_mean           =   1.3302179389535E-05
(PID.TID 0000.0001) %MON forcing_empmr_sd             =   4.1781550808678E-04
(PID.TID 0000.0001) %MON forcing_empmr_del2           =   4.4591349761524E-06
(PID.TID 0000.0001) %MON forcing_fu_max               =   1.1059982180595E+00
(PID.TID 0000.0001) %MON forcing_fu_min               =  -9.9176493287086E-01
(PID.TID 0000.0001) %MON forcing_fu_mean              =   1.0819918800133E-02
(PID.TID 0000.0001) %MON forcing_fu_sd                =   1.1653536374179E-01
(PID.TID 0000.0001) %MON forcing_fu_del2              =   1.6385417471115E-04
(PID.TID 0000.0001) %MON forcing_fv_max               =   7.4340891838074E-01
(PID.TID 0000.0001) %MON forcing_fv_min               =  -8.1561885258223E-01
(PID.TID 0000.0001) %MON forcing_fv_mean              =  -7.2696818478263E-03
(PID.TID 0000.0001) %MON forcing_fv_sd                =   1.1245223216851E-01
(PID.TID 0000.0001) %MON forcing_fv_del2              =   1.4277688238280E-04
(PID.TID 0000.0001) %MON trAdv_CFL_u_max              =   2.2922489369936E-02
(PID.TID 0000.0001) %MON trAdv_CFL_v_max              =   2.2194877818723E-02
(PID.TID 0000.0001) %MON trAdv_CFL_w_max              =   5.7173744486937E-02
(PID.TID 0000.0001) %MON advcfl_uvel_max              =   2.3634746665804E-02
(PID.TID 0000.0001) %MON advcfl_vvel_max              =   2.0861500335178E-02
(PID.TID 0000.0001) %MON advcfl_wvel_max              =   5.8139849723644E-02
(PID.TID 0000.0001) %MON advcfl_W_hf_max              =   6.1113868526120E-02
(PID.TID 0000.0001) %MON pe_b_mean                    =   6.8069603205223E-04
(PID.TID 0000.0001) %MON ke_max                       =   9.3458910499129E-01
(PID.TID 0000.0001) %MON ke_mean                      =   5.0137172965500E-04
(PID.TID 0000.0001) %MON ke_vol                       =   1.3349970788161E+18
(PID.TID 0000.0001) %MON vort_r_min                   =  -4.4869249786186E-05
(PID.TID 0000.0001) %MON vort_r_max                   =   4.1258937621806E-05
(PID.TID 0000.0001) %MON vort_a_mean                  =  -1.9727864647440E-05
(PID.TID 0000.0001) %MON vort_a_sd                    =   7.4543357226909E-05
(PID.TID 0000.0001) %MON vort_p_mean                  =  -2.1760542774369E-05
(PID.TID 0000.0001) %MON vort_p_sd                    =   9.7243777101714E-05
(PID.TID 0000.0001) %MON surfExpan_theta_mean         =  -1.5114202585111E-06
(PID.TID 0000.0001) %MON surfExpan_salt_mean          =  -4.1144413926537E-07
(PID.TID 0000.0001) // =======================================================
(PID.TID 0000.0001) // End MONITOR dynamic field statistics
(PID.TID 0000.0001) // =======================================================
(PID.TID 0000.0001) // =======================================================
(PID.TID 0000.0001) // Begin MONITOR SEAICE statistics
(PID.TID 0000.0001) // =======================================================
(PID.TID 0000.0001) %MON seaice_tsnumber              =                    32
(PID.TID 0000.0001) %MON seaice_time_sec              =   2.8800000000000E+04
(PID.TID 0000.0001) %MON seaice_uice_max              =   4.0000000000000E-01
(PID.TID 0000.0001) %MON seaice_uice_min              =  -4.0000000000000E-01
(PID.TID 0000.0001) %MON seaice_uice_mean             =  -8.3054598624025E-03
(PID.TID 0000.0001) %MON seaice_uice_sd               =   1.9802383574176E-01
(PID.TID 0000.0001) %MON seaice_uice_del2             =   2.2931571122150E-04
(PID.TID 0000.0001) %MON seaice_vice_max              =   4.0000000000000E-01
(PID.TID 0000.0001) %MON seaice_vice_min              =  -4.0000000000000E-01
(PID.TID 0000.0001) %MON seaice_vice_mean             =  -2.1960776359499E-02
(PID.TID 0000.0001) %MON seaice_vice_sd               =   2.1302038025672E-01
(PID.TID 0000.0001) %MON seaice_vice_del2             =   2.3932563818061E-04
(PID.TID 0000.0001) %MON seaice_area_max              =   1.0000000000000E+00
(PID.TID 0000.0001) %MON seaice_area_min              =   0.0000000000000E+00
(PID.TID 0000.0001) %MON seaice_area_mean             =   7.1759278805791E-02
(PID.TID 0000.0001) %MON seaice_area_sd               =   2.3761934670791E-01
(PID.TID 0000.0001) %MON seaice_area_del2             =   4.7365533658419E-04
(PID.TID 0000.0001) %MON seaice_heff_max              =   2.5277804057347E+01
(PID.TID 0000.0001) %MON seaice_heff_min              =   0.0000000000000E+00
(PID.TID 0000.0001) %MON seaice_heff_mean             =   2.1667839451797E-01
(PID.TID 0000.0001) %MON seaice_heff_sd               =   1.0675284798793E+00
(PID.TID 0000.0001) %MON seaice_heff_del2             =   3.9205123689014E-03
(PID.TID 0000.0001) %MON seaice_hsnow_max             =   8.3487596430059E+00
(PID.TID 0000.0001) %MON seaice_hsnow_min             =   0.0000000000000E+00
(PID.TID 0000.0001) %MON seaice_hsnow_mean            =   2.4621168157889E-02
(PID.TID 0000.0001) %MON seaice_hsnow_sd              =   1.5807160161757E-01
(PID.TID 0000.0001) %MON seaice_hsnow_del2            =   1.2565195330039E-03
(PID.TID 0000.0001) // =======================================================
(PID.TID 0000.0001) // End MONITOR SEAICE statistics
(PID.TID 0000.0001) // =======================================================
 Computing Diagnostic #     86  oceQnet      Counter:       4   Parms: SM      U1      
 Computing Diagnostic #     87  oceQsw       Counter:       4   Parms: SM      U1      
 Computing Diagnostic #     84  oceFWflx     Counter:       4   Parms: SM      U1      
 Computing Diagnostic #     85  oceSflux     Counter:       4   Parms: SM      U1      
 Computing Diagnostic #     80  oceTAUX      Counter:       4   Parms: UU      U1      
           Vector  Mate for  oceTAUX      Diagnostic #     81  oceTAUY  exists 
 Computing Diagnostic #     81  oceTAUY      Counter:       4   Parms: VV      U1      
           Vector  Mate for  oceTAUY      Diagnostic #     80  oceTAUX  exists 
 Computing Diagnostic #     26  THETA        Counter:       4   Parms: SMR     MR      
 Computing Diagnostic #     27  SALT         Counter:       4   Parms: SMR     MR      
 Computing Diagnostic #     30  UVEL         Counter:       4   Parms: UUR     MR      
           Vector  Mate for  UVEL         Diagnostic #     31  VVEL     exists 
 Computing Diagnostic #     31  VVEL         Counter:       4   Parms: VVR     MR      
           Vector  Mate for  VVEL         Diagnostic #     30  UVEL     exists 
 Computing Diagnostic #    214  SIarea       Counter:       4   Parms: SM      M1      
 Computing Diagnostic #    217  SIheff       Counter:       4   Parms: SM      M1      
 Computing Diagnostic #    219  SIhsnow      Counter:       4   Parms: SM      M1      
 Computing Diagnostic #     83  sIceLoad     Counter:       4   Parms: SM      U1      
 Computing Diagnostic #    223  SIuice       Counter:       4   Parms: UU      M1      
           Vector  Mate for  SIuice       Diagnostic #    224  SIvice   exists 
 Computing Diagnostic #    224  SIvice       Counter:       4   Parms: VV      M1      
           Vector  Mate for  SIvice       Diagnostic #    223  SIuice   exists 
 Computing Diagnostic #    225  SItaux       Counter:       4   Parms: UU      U1      
           Vector  Mate for  SItaux       Diagnostic #    226  SItauy   exists 
 Computing Diagnostic #    226  SItauy       Counter:       4   Parms: VV      U1      
           Vector  Mate for  SItauy       Diagnostic #    225  SItaux   exists 
 Computing Diagnostic #    285  SIareaN      Counter:       4   Parms: SM      MX      
 Computing Diagnostic #    284  SIheffN      Counter:       4   Parms: SM      MX      
 Computing Diagnostic #    286  SIhsnowN     Counter:       4   Parms: SM      MX      
 Compute Stats, Diag. #    214  SIarea    vol(   0 ): 3.580E+14  Parms: SM      M1      
 Compute Stats, Diag. #    217  SIheff    vol(   0 ): 3.580E+14  Parms: SM      M1      
 Compute Stats, Diag. #    219  SIhsnow   vol(   0 ): 3.580E+14  Parms: SM      M1      
 Compute Stats, Diag. #     83  sIceLoad  vol(   0 ): 3.580E+14  Parms: SM      U1      
 Compute Stats, Diag. #    223  SIuice    vol(   0 ): 3.513E+14  Parms: UU      M1      
 Compute Stats, Diag. #    224  SIvice    vol(   0 ): 3.508E+14  Parms: VV      M1      
 Compute Stats, Diag. #    225  SItaux    vol(   0 ): 3.513E+14  Parms: UU      U1      
 Compute Stats, Diag. #    226  SItauy    vol(   0 ): 3.508E+14  Parms: VV      U1      
 cg2d: Sum(rhs),rhsMax =   7.11719831839151E+01  2.99309593265123E-01
 Compute Stats, Diag. #    214  SIarea    vol(   0 ): 3.580E+14  Parms: SM      M1      
 Compute Stats, Diag. #    217  SIheff    vol(   0 ): 3.580E+14  Parms: SM      M1      
 Compute Stats, Diag. #    219  SIhsnow   vol(   0 ): 3.580E+14  Parms: SM      M1      
 Compute Stats, Diag. #     83  sIceLoad  vol(   0 ): 3.580E+14  Parms: SM      U1      
 Compute Stats, Diag. #    223  SIuice    vol(   0 ): 3.513E+14  Parms: UU      M1      
 Compute Stats, Diag. #    224  SIvice    vol(   0 ): 3.508E+14  Parms: VV      M1      
 Compute Stats, Diag. #    225  SItaux    vol(   0 ): 3.513E+14  Parms: UU      U1      
 Compute Stats, Diag. #    226  SItauy    vol(   0 ): 3.508E+14  Parms: VV      U1      
 cg2d: Sum(rhs),rhsMax =   7.14710074437079E+01  2.99850110727241E-01
 Compute Stats, Diag. #    214  SIarea    vol(   0 ): 3.580E+14  Parms: SM      M1      
 Compute Stats, Diag. #    217  SIheff    vol(   0 ): 3.580E+14  Parms: SM      M1      
 Compute Stats, Diag. #    219  SIhsnow   vol(   0 ): 3.580E+14  Parms: SM      M1      
 Compute Stats, Diag. #     83  sIceLoad  vol(   0 ): 3.580E+14  Parms: SM      U1      
 Compute Stats, Diag. #    223  SIuice    vol(   0 ): 3.513E+14  Parms: UU      M1      
 Compute Stats, Diag. #    224  SIvice    vol(   0 ): 3.508E+14  Parms: VV      M1      
 Compute Stats, Diag. #    225  SItaux    vol(   0 ): 3.513E+14  Parms: UU      U1      
 Compute Stats, Diag. #    226  SItauy    vol(   0 ): 3.508E+14  Parms: VV      U1      
 cg2d: Sum(rhs),rhsMax =   7.17379968950272E+01  3.00040118659971E-01
 Compute Stats, Diag. #    214  SIarea    vol(   0 ): 3.580E+14  Parms: SM      M1      
 Compute Stats, Diag. #    217  SIheff    vol(   0 ): 3.580E+14  Parms: SM      M1      
 Compute Stats, Diag. #    219  SIhsnow   vol(   0 ): 3.580E+14  Parms: SM      M1      
 Compute Stats, Diag. #     83  sIceLoad  vol(   0 ): 3.580E+14  Parms: SM      U1      
 Compute Stats, Diag. #    223  SIuice    vol(   0 ): 3.513E+14  Parms: UU      M1      
 Compute Stats, Diag. #    224  SIvice    vol(   0 ): 3.508E+14  Parms: VV      M1      
 Compute Stats, Diag. #    225  SItaux    vol(   0 ): 3.513E+14  Parms: UU      U1      
 Compute Stats, Diag. #    226  SItauy    vol(   0 ): 3.508E+14  Parms: VV      U1      
 cg2d: Sum(rhs),rhsMax =   7.19723658487591E+01  2.99922337737236E-01
 Computing Diagnostic #     86  oceQnet      Counter:       4   Parms: SM      U1      
 Computing Diagnostic #     87  oceQsw       Counter:       4   Parms: SM      U1      
 Computing Diagnostic #     84  oceFWflx     Counter:       4   Parms: SM      U1      
 Computing Diagnostic #     85  oceSflux     Counter:       4   Parms: SM      U1      
 Computing Diagnostic #     80  oceTAUX      Counter:       4   Parms: UU      U1      
           Vector  Mate for  oceTAUX      Diagnostic #     81  oceTAUY  exists 
 Computing Diagnostic #     81  oceTAUY      Counter:       4   Parms: VV      U1      
           Vector  Mate for  oceTAUY      Diagnostic #     80  oceTAUX  exists 
 Computing Diagnostic #     26  THETA        Counter:       4   Parms: SMR     MR      
 Computing Diagnostic #     27  SALT         Counter:       4   Parms: SMR     MR      
 Computing Diagnostic #     30  UVEL         Counter:       4   Parms: UUR     MR      
           Vector  Mate for  UVEL         Diagnostic #     31  VVEL     exists 
 Computing Diagnostic #     31  VVEL         Counter:       4   Parms: VVR     MR      
           Vector  Mate for  VVEL         Diagnostic #     30  UVEL     exists 
 Computing Diagnostic #    214  SIarea       Counter:       4   Parms: SM      M1      
 Computing Diagnostic #    217  SIheff       Counter:       4   Parms: SM      M1      
 Computing Diagnostic #    219  SIhsnow      Counter:       4   Parms: SM      M1      
 Computing Diagnostic #     83  sIceLoad     Counter:       4   Parms: SM      U1      
 Computing Diagnostic #    223  SIuice       Counter:       4   Parms: UU      M1      
           Vector  Mate for  SIuice       Diagnostic #    224  SIvice   exists 
 Computing Diagnostic #    224  SIvice       Counter:       4   Parms: VV      M1      
           Vector  Mate for  SIvice       Diagnostic #    223  SIuice   exists 
 Computing Diagnostic #    225  SItaux       Counter:       4   Parms: UU      U1      
           Vector  Mate for  SItaux       Diagnostic #    226  SItauy   exists 
 Computing Diagnostic #    226  SItauy       Counter:       4   Parms: VV      U1      
           Vector  Mate for  SItauy       Diagnostic #    225  SItaux   exists 
 Computing Diagnostic #    285  SIareaN      Counter:       4   Parms: SM      MX      
 Computing Diagnostic #    284  SIheffN      Counter:       4   Parms: SM      MX      
 Computing Diagnostic #    286  SIhsnowN     Counter:       4   Parms: SM      MX      
 Compute Stats, Diag. #    214  SIarea    vol(   0 ): 3.580E+14  Parms: SM      M1      
 Compute Stats, Diag. #    217  SIheff    vol(   0 ): 3.580E+14  Parms: SM      M1      
 Compute Stats, Diag. #    219  SIhsnow   vol(   0 ): 3.580E+14  Parms: SM      M1      
 Compute Stats, Diag. #     83  sIceLoad  vol(   0 ): 3.580E+14  Parms: SM      U1      
 Compute Stats, Diag. #    223  SIuice    vol(   0 ): 3.513E+14  Parms: UU      M1      
 Compute Stats, Diag. #    224  SIvice    vol(   0 ): 3.508E+14  Parms: VV      M1      
 Compute Stats, Diag. #    225  SItaux    vol(   0 ): 3.513E+14  Parms: UU      U1      
 Compute Stats, Diag. #    226  SItauy    vol(   0 ): 3.508E+14  Parms: VV      U1      
 cg2d: Sum(rhs),rhsMax =   7.21769879164897E+01  2.99582574814538E-01
 Compute Stats, Diag. #    214  SIarea    vol(   0 ): 3.580E+14  Parms: SM      M1      
 Compute Stats, Diag. #    217  SIheff    vol(   0 ): 3.580E+14  Parms: SM      M1      
 Compute Stats, Diag. #    219  SIhsnow   vol(   0 ): 3.580E+14  Parms: SM      M1      
 Compute Stats, Diag. #     83  sIceLoad  vol(   0 ): 3.580E+14  Parms: SM      U1      
 Compute Stats, Diag. #    223  SIuice    vol(   0 ): 3.513E+14  Parms: UU      M1      
 Compute Stats, Diag. #    224  SIvice    vol(   0 ): 3.508E+14  Parms: VV      M1      
 Compute Stats, Diag. #    225  SItaux    vol(   0 ): 3.513E+14  Parms: UU      U1      
 Compute Stats, Diag. #    226  SItauy    vol(   0 ): 3.508E+14  Parms: VV      U1      
 cg2d: Sum(rhs),rhsMax =   7.23582106034529E+01  2.99205373224055E-01
 Compute Stats, Diag. #    214  SIarea    vol(   0 ): 3.580E+14  Parms: SM      M1      
 Compute Stats, Diag. #    217  SIheff    vol(   0 ): 3.580E+14  Parms: SM      M1      
 Compute Stats, Diag. #    219  SIhsnow   vol(   0 ): 3.580E+14  Parms: SM      M1      
 Compute Stats, Diag. #     83  sIceLoad  vol(   0 ): 3.580E+14  Parms: SM      U1      
 Compute Stats, Diag. #    223  SIuice    vol(   0 ): 3.513E+14  Parms: UU      M1      
 Compute Stats, Diag. #    224  SIvice    vol(   0 ): 3.508E+14  Parms: VV      M1      
 Compute Stats, Diag. #    225  SItaux    vol(   0 ): 3.513E+14  Parms: UU      U1      
 Compute Stats, Diag. #    226  SItauy    vol(   0 ): 3.508E+14  Parms: VV      U1      
 cg2d: Sum(rhs),rhsMax =   7.25198052324217E+01  2.98722822828825E-01
 Compute Stats, Diag. #    214  SIarea    vol(   0 ): 3.580E+14  Parms: SM      M1      
 Compute Stats, Diag. #    217  SIheff    vol(   0 ): 3.580E+14  Parms: SM      M1      
 Compute Stats, Diag. #    219  SIhsnow   vol(   0 ): 3.580E+14  Parms: SM      M1      
 Compute Stats, Diag. #     83  sIceLoad  vol(   0 ): 3.580E+14  Parms: SM      U1      
 Compute Stats, Diag. #    223  SIuice    vol(   0 ): 3.513E+14  Parms: UU      M1      
 Compute Stats, Diag. #    224  SIvice    vol(   0 ): 3.508E+14  Parms: VV      M1      
 Compute Stats, Diag. #    225  SItaux    vol(   0 ): 3.513E+14  Parms: UU      U1      
 Compute Stats, Diag. #    226  SItauy    vol(   0 ): 3.508E+14  Parms: VV      U1      
 cg2d: Sum(rhs),rhsMax =   7.26645476296328E+01  2.98214278102782E-01
(PID.TID 0000.0001)      cg2d_init_res =   4.79157030563641E-01
(PID.TID 0000.0001)      cg2d_iters(min,last) =      -1      33
(PID.TID 0000.0001)      cg2d_last_res =   2.41412827306212E-05
(PID.TID 0000.0001) // =======================================================
(PID.TID 0000.0001) // Begin MONITOR dynamic field statistics
(PID.TID 0000.0001) // =======================================================
(PID.TID 0000.0001) %MON time_tsnumber                =                    40
(PID.TID 0000.0001) %MON time_secondsf                =   3.6000000000000E+04
(PID.TID 0000.0001) %MON dynstat_eta_max              =   1.1706180992377E+00
(PID.TID 0000.0001) %MON dynstat_eta_min              =  -3.7838541082942E+00
(PID.TID 0000.0001) %MON dynstat_eta_mean             =  -2.2986117166921E-03
(PID.TID 0000.0001) %MON dynstat_eta_sd               =   7.1771725590251E-01
(PID.TID 0000.0001) %MON dynstat_eta_del2             =   8.8630299277295E-05
(PID.TID 0000.0001) %MON dynstat_uvel_max             =   6.5049279442995E-01
(PID.TID 0000.0001) %MON dynstat_uvel_min             =  -1.3869988417171E+00
(PID.TID 0000.0001) %MON dynstat_uvel_mean            =   1.7934191905640E-03
(PID.TID 0000.0001) %MON dynstat_uvel_sd              =   2.1845379682008E-02
(PID.TID 0000.0001) %MON dynstat_uvel_del2            =   1.3495437989971E-05
(PID.TID 0000.0001) %MON dynstat_vvel_max             =   1.1805839293521E+00
(PID.TID 0000.0001) %MON dynstat_vvel_min             =  -9.3014181674732E-01
(PID.TID 0000.0001) %MON dynstat_vvel_mean            =   1.4632819818987E-03
(PID.TID 0000.0001) %MON dynstat_vvel_sd              =   2.3311200027739E-02
(PID.TID 0000.0001) %MON dynstat_vvel_del2            =   1.4390713347502E-05
(PID.TID 0000.0001) %MON dynstat_wvel_max             =   2.8672836917668E-03
(PID.TID 0000.0001) %MON dynstat_wvel_min             =  -4.0005107535635E-03
(PID.TID 0000.0001) %MON dynstat_wvel_mean            =   6.0799067976826E-08
(PID.TID 0000.0001) %MON dynstat_wvel_sd              =   3.5873780964467E-05
(PID.TID 0000.0001) %MON dynstat_wvel_del2            =   5.2784300586670E-08
(PID.TID 0000.0001) %MON dynstat_theta_max            =   3.2668044755331E+01
(PID.TID 0000.0001) %MON dynstat_theta_min            =  -2.0423336441529E+00
(PID.TID 0000.0001) %MON dynstat_theta_mean           =   3.5905797929122E+00
(PID.TID 0000.0001) %MON dynstat_theta_sd             =   4.4365073445055E+00
(PID.TID 0000.0001) %MON dynstat_theta_del2           =   1.0747470726564E-04
(PID.TID 0000.0001) %MON dynstat_salt_max             =   4.0711522910889E+01
(PID.TID 0000.0001) %MON dynstat_salt_min             =   1.8868040105321E+01
(PID.TID 0000.0001) %MON dynstat_salt_mean            =   3.4725655162132E+01
(PID.TID 0000.0001) %MON dynstat_salt_sd              =   3.7727669692033E-01
(PID.TID 0000.0001) %MON dynstat_salt_del2            =   2.7473817037214E-05
(PID.TID 0000.0001) %MON dynstat_sst_max              =   3.2668044755331E+01
(PID.TID 0000.0001) %MON dynstat_sst_min              =  -1.9337229691153E+00
(PID.TID 0000.0001) %MON dynstat_sst_mean             =   1.8491239577469E+01
(PID.TID 0000.0001) %MON dynstat_sst_sd               =   1.0105001549120E+01
(PID.TID 0000.0001) %MON dynstat_sst_del2             =   8.6845351617870E-04
(PID.TID 0000.0001) %MON dynstat_sss_max              =   3.9503138246431E+01
(PID.TID 0000.0001) %MON dynstat_sss_min              =   1.8868040105321E+01
(PID.TID 0000.0001) %MON dynstat_sss_mean             =   3.4683885332793E+01
(PID.TID 0000.0001) %MON dynstat_sss_sd               =   1.1244985139094E+00
(PID.TID 0000.0001) %MON dynstat_sss_del2             =   4.8785676807278E-04
(PID.TID 0000.0001) %MON forcing_qnet_max             =   2.1447250976562E+03
(PID.TID 0000.0001) %MON forcing_qnet_min             =  -1.1751331787109E+03
(PID.TID 0000.0001) %MON forcing_qnet_mean            =   5.2556294839438E+01
(PID.TID 0000.0001) %MON forcing_qnet_sd              =   1.8498834953741E+02
(PID.TID 0000.0001) %MON forcing_qnet_del2            =   4.8581334545608E-01
(PID.TID 0000.0001) %MON forcing_qsw_max              =   0.0000000000000E+00
(PID.TID 0000.0001) %MON forcing_qsw_min              =  -1.0905582865977E+02
(PID.TID 0000.0001) %MON forcing_qsw_mean             =  -1.4209113402537E+01
(PID.TID 0000.0001) %MON forcing_qsw_sd               =   2.5785745721424E+01
(PID.TID 0000.0001) %MON forcing_qsw_del2             =   1.9182283395710E-02
(PID.TID 0000.0001) %MON forcing_empmr_max            =   3.5366483498365E-03
(PID.TID 0000.0001) %MON forcing_empmr_min            =  -1.2418355047703E-01
(PID.TID 0000.0001) %MON forcing_empmr_mean           =   5.2349395168366E-06
(PID.TID 0000.0001) %MON forcing_empmr_sd             =   5.0474768726977E-04
(PID.TID 0000.0001) %MON forcing_empmr_del2           =   7.1055165454810E-06
(PID.TID 0000.0001) %MON forcing_fu_max               =   1.0772080421448E+00
(PID.TID 0000.0001) %MON forcing_fu_min               =  -9.2761293053627E-01
(PID.TID 0000.0001) %MON forcing_fu_mean              =   1.1160235640941E-02
(PID.TID 0000.0001) %MON forcing_fu_sd                =   1.1443683613151E-01
(PID.TID 0000.0001) %MON forcing_fu_del2              =   1.5886444139310E-04
(PID.TID 0000.0001) %MON forcing_fv_max               =   8.0622917413711E-01
(PID.TID 0000.0001) %MON forcing_fv_min               =  -8.1772002042609E-01
(PID.TID 0000.0001) %MON forcing_fv_mean              =  -8.4133368395653E-03
(PID.TID 0000.0001) %MON forcing_fv_sd                =   1.1192668914582E-01
(PID.TID 0000.0001) %MON forcing_fv_del2              =   1.4220004493320E-04
(PID.TID 0000.0001) %MON trAdv_CFL_u_max              =   2.2216225207612E-02
(PID.TID 0000.0001) %MON trAdv_CFL_v_max              =   2.2264104408752E-02
(PID.TID 0000.0001) %MON trAdv_CFL_w_max              =   6.6757020709152E-02
(PID.TID 0000.0001) %MON advcfl_uvel_max              =   2.2947778578513E-02
(PID.TID 0000.0001) %MON advcfl_vvel_max              =   2.0956291839216E-02
(PID.TID 0000.0001) %MON advcfl_wvel_max              =   6.3893264416267E-02
(PID.TID 0000.0001) %MON advcfl_W_hf_max              =   6.4764768198116E-02
(PID.TID 0000.0001) %MON pe_b_mean                    =   6.7759434974242E-04
(PID.TID 0000.0001) %MON ke_max                       =   8.7369019421604E-01
(PID.TID 0000.0001) %MON ke_mean                      =   4.9472719895531E-04
(PID.TID 0000.0001) %MON ke_vol                       =   1.3349970556437E+18
(PID.TID 0000.0001) %MON vort_r_min                   =  -3.9301822945433E-05
(PID.TID 0000.0001) %MON vort_r_max                   =   3.9847480930554E-05
(PID.TID 0000.0001) %MON vort_a_mean                  =  -1.9727864647440E-05
(PID.TID 0000.0001) %MON vort_a_sd                    =   7.4543352523232E-05
(PID.TID 0000.0001) %MON vort_p_mean                  =  -2.1760543494303E-05
(PID.TID 0000.0001) %MON vort_p_sd                    =   9.7244033082825E-05
(PID.TID 0000.0001) %MON surfExpan_theta_mean         =  -1.6931118289228E-06
(PID.TID 0000.0001) %MON surfExpan_salt_mean          =  -2.9801549724164E-07
(PID.TID 0000.0001) // =======================================================
(PID.TID 0000.0001) // End MONITOR dynamic field statistics
(PID.TID 0000.0001) // =======================================================
(PID.TID 0000.0001) // =======================================================
(PID.TID 0000.0001) // Begin MONITOR SEAICE statistics
(PID.TID 0000.0001) // =======================================================
(PID.TID 0000.0001) %MON seaice_tsnumber              =                    40
(PID.TID 0000.0001) %MON seaice_time_sec              =   3.6000000000000E+04
(PID.TID 0000.0001) %MON seaice_uice_max              =   4.0000000000000E-01
(PID.TID 0000.0001) %MON seaice_uice_min              =  -4.0000000000000E-01
(PID.TID 0000.0001) %MON seaice_uice_mean             =  -8.3054598624025E-03
(PID.TID 0000.0001) %MON seaice_uice_sd               =   1.9802383574176E-01
(PID.TID 0000.0001) %MON seaice_uice_del2             =   2.2931571122150E-04
(PID.TID 0000.0001) %MON seaice_vice_max              =   4.0000000000000E-01
(PID.TID 0000.0001) %MON seaice_vice_min              =  -4.0000000000000E-01
(PID.TID 0000.0001) %MON seaice_vice_mean             =  -2.1960776359499E-02
(PID.TID 0000.0001) %MON seaice_vice_sd               =   2.1302038025672E-01
(PID.TID 0000.0001) %MON seaice_vice_del2             =   2.3932563818061E-04
(PID.TID 0000.0001) %MON seaice_area_max              =   1.0000000000000E+00
(PID.TID 0000.0001) %MON seaice_area_min              =   0.0000000000000E+00
(PID.TID 0000.0001) %MON seaice_area_mean             =   7.1468798840834E-02
(PID.TID 0000.0001) %MON seaice_area_sd               =   2.3749776988981E-01
(PID.TID 0000.0001) %MON seaice_area_del2             =   4.7199256498375E-04
(PID.TID 0000.0001) %MON seaice_heff_max              =   2.5271389203146E+01
(PID.TID 0000.0001) %MON seaice_heff_min              =   0.0000000000000E+00
(PID.TID 0000.0001) %MON seaice_heff_mean             =   2.1675349735047E-01
(PID.TID 0000.0001) %MON seaice_heff_sd               =   1.0684764068750E+00
(PID.TID 0000.0001) %MON seaice_heff_del2             =   3.9193450546299E-03
(PID.TID 0000.0001) %MON seaice_hsnow_max             =   8.3466430305270E+00
(PID.TID 0000.0001) %MON seaice_hsnow_min             =   0.0000000000000E+00
(PID.TID 0000.0001) %MON seaice_hsnow_mean            =   2.4618688998008E-02
(PID.TID 0000.0001) %MON seaice_hsnow_sd              =   1.5804314068286E-01
(PID.TID 0000.0001) %MON seaice_hsnow_del2            =   1.2562006038160E-03
(PID.TID 0000.0001) // =======================================================
(PID.TID 0000.0001) // End MONITOR SEAICE statistics
(PID.TID 0000.0001) // =======================================================
 Computing Diagnostic #     86  oceQnet      Counter:       4   Parms: SM      U1      
 Computing Diagnostic #     87  oceQsw       Counter:       4   Parms: SM      U1      
 Computing Diagnostic #     84  oceFWflx     Counter:       4   Parms: SM      U1      
 Computing Diagnostic #     85  oceSflux     Counter:       4   Parms: SM      U1      
 Computing Diagnostic #     80  oceTAUX      Counter:       4   Parms: UU      U1      
           Vector  Mate for  oceTAUX      Diagnostic #     81  oceTAUY  exists 
 Computing Diagnostic #     81  oceTAUY      Counter:       4   Parms: VV      U1      
           Vector  Mate for  oceTAUY      Diagnostic #     80  oceTAUX  exists 
 Computing Diagnostic #     26  THETA        Counter:       4   Parms: SMR     MR      
 Computing Diagnostic #     27  SALT         Counter:       4   Parms: SMR     MR      
 Computing Diagnostic #     30  UVEL         Counter:       4   Parms: UUR     MR      
           Vector  Mate for  UVEL         Diagnostic #     31  VVEL     exists 
 Computing Diagnostic #     31  VVEL         Counter:       4   Parms: VVR     MR      
           Vector  Mate for  VVEL         Diagnostic #     30  UVEL     exists 
 Computing Diagnostic #    214  SIarea       Counter:       4   Parms: SM      M1      
 Computing Diagnostic #    217  SIheff       Counter:       4   Parms: SM      M1      
 Computing Diagnostic #    219  SIhsnow      Counter:       4   Parms: SM      M1      
 Computing Diagnostic #     83  sIceLoad     Counter:       4   Parms: SM      U1      
 Computing Diagnostic #    223  SIuice       Counter:       4   Parms: UU      M1      
           Vector  Mate for  SIuice       Diagnostic #    224  SIvice   exists 
 Computing Diagnostic #    224  SIvice       Counter:       4   Parms: VV      M1      
           Vector  Mate for  SIvice       Diagnostic #    223  SIuice   exists 
 Computing Diagnostic #    225  SItaux       Counter:       4   Parms: UU      U1      
           Vector  Mate for  SItaux       Diagnostic #    226  SItauy   exists 
 Computing Diagnostic #    226  SItauy       Counter:       4   Parms: VV      U1      
           Vector  Mate for  SItauy       Diagnostic #    225  SItaux   exists 
 Computing Diagnostic #    285  SIareaN      Counter:       4   Parms: SM      MX      
 Computing Diagnostic #    284  SIheffN      Counter:       4   Parms: SM      MX      
 Computing Diagnostic #    286  SIhsnowN     Counter:       4   Parms: SM      MX      
 Compute Stats, Diag. #    214  SIarea    vol(   0 ): 3.580E+14  Parms: SM      M1      
 Compute Stats, Diag. #    217  SIheff    vol(   0 ): 3.580E+14  Parms: SM      M1      
 Compute Stats, Diag. #    219  SIhsnow   vol(   0 ): 3.580E+14  Parms: SM      M1      
 Compute Stats, Diag. #     83  sIceLoad  vol(   0 ): 3.580E+14  Parms: SM      U1      
 Compute Stats, Diag. #    223  SIuice    vol(   0 ): 3.513E+14  Parms: UU      M1      
 Compute Stats, Diag. #    224  SIvice    vol(   0 ): 3.508E+14  Parms: VV      M1      
 Compute Stats, Diag. #    225  SItaux    vol(   0 ): 3.513E+14  Parms: UU      U1      
 Compute Stats, Diag. #    226  SItauy    vol(   0 ): 3.508E+14  Parms: VV      U1      
 cg2d: Sum(rhs),rhsMax =   7.27858096108543E+01  2.97749472694536E-01
 Compute Stats, Diag. #    214  SIarea    vol(   0 ): 3.580E+14  Parms: SM      M1      
 Compute Stats, Diag. #    217  SIheff    vol(   0 ): 3.580E+14  Parms: SM      M1      
 Compute Stats, Diag. #    219  SIhsnow   vol(   0 ): 3.580E+14  Parms: SM      M1      
 Compute Stats, Diag. #     83  sIceLoad  vol(   0 ): 3.580E+14  Parms: SM      U1      
 Compute Stats, Diag. #    223  SIuice    vol(   0 ): 3.513E+14  Parms: UU      M1      
 Compute Stats, Diag. #    224  SIvice    vol(   0 ): 3.508E+14  Parms: VV      M1      
 Compute Stats, Diag. #    225  SItaux    vol(   0 ): 3.513E+14  Parms: UU      U1      
 Compute Stats, Diag. #    226  SItauy    vol(   0 ): 3.508E+14  Parms: VV      U1      
 cg2d: Sum(rhs),rhsMax =   7.28882109832312E+01  2.97380674082798E-01
 Compute Stats, Diag. #    214  SIarea    vol(   0 ): 3.580E+14  Parms: SM      M1      
 Compute Stats, Diag. #    217  SIheff    vol(   0 ): 3.580E+14  Parms: SM      M1      
 Compute Stats, Diag. #    219  SIhsnow   vol(   0 ): 3.580E+14  Parms: SM      M1      
 Compute Stats, Diag. #     83  sIceLoad  vol(   0 ): 3.580E+14  Parms: SM      U1      
 Compute Stats, Diag. #    223  SIuice    vol(   0 ): 3.513E+14  Parms: UU      M1      
 Compute Stats, Diag. #    224  SIvice    vol(   0 ): 3.508E+14  Parms: VV      M1      
 Compute Stats, Diag. #    225  SItaux    vol(   0 ): 3.513E+14  Parms: UU      U1      
 Compute Stats, Diag. #    226  SItauy    vol(   0 ): 3.508E+14  Parms: VV      U1      
 cg2d: Sum(rhs),rhsMax =   7.29705118888753E+01  2.97141486885928E-01
 Compute Stats, Diag. #    214  SIarea    vol(   0 ): 3.580E+14  Parms: SM      M1      
 Compute Stats, Diag. #    217  SIheff    vol(   0 ): 3.580E+14  Parms: SM      M1      
 Compute Stats, Diag. #    219  SIhsnow   vol(   0 ): 3.580E+14  Parms: SM      M1      
 Compute Stats, Diag. #     83  sIceLoad  vol(   0 ): 3.580E+14  Parms: SM      U1      
 Compute Stats, Diag. #    223  SIuice    vol(   0 ): 3.513E+14  Parms: UU      M1      
 Compute Stats, Diag. #    224  SIvice    vol(   0 ): 3.508E+14  Parms: VV      M1      
 Compute Stats, Diag. #    225  SItaux    vol(   0 ): 3.513E+14  Parms: UU      U1      
 Compute Stats, Diag. #    226  SItauy    vol(   0 ): 3.508E+14  Parms: VV      U1      
 cg2d: Sum(rhs),rhsMax =   7.30331427109086E+01  2.97044964686092E-01
 Computing Diagnostic #     86  oceQnet      Counter:       4   Parms: SM      U1      
 Computing Diagnostic #     87  oceQsw       Counter:       4   Parms: SM      U1      
 Computing Diagnostic #     84  oceFWflx     Counter:       4   Parms: SM      U1      
 Computing Diagnostic #     85  oceSflux     Counter:       4   Parms: SM      U1      
 Computing Diagnostic #     80  oceTAUX      Counter:       4   Parms: UU      U1      
           Vector  Mate for  oceTAUX      Diagnostic #     81  oceTAUY  exists 
 Computing Diagnostic #     81  oceTAUY      Counter:       4   Parms: VV      U1      
           Vector  Mate for  oceTAUY      Diagnostic #     80  oceTAUX  exists 
 Computing Diagnostic #     26  THETA        Counter:       4   Parms: SMR     MR      
 Computing Diagnostic #     27  SALT         Counter:       4   Parms: SMR     MR      
 Computing Diagnostic #     30  UVEL         Counter:       4   Parms: UUR     MR      
           Vector  Mate for  UVEL         Diagnostic #     31  VVEL     exists 
 Computing Diagnostic #     31  VVEL         Counter:       4   Parms: VVR     MR      
           Vector  Mate for  VVEL         Diagnostic #     30  UVEL     exists 
 Computing Diagnostic #    214  SIarea       Counter:       4   Parms: SM      M1      
 Computing Diagnostic #    217  SIheff       Counter:       4   Parms: SM      M1      
 Computing Diagnostic #    219  SIhsnow      Counter:       4   Parms: SM      M1      
 Computing Diagnostic #     83  sIceLoad     Counter:       4   Parms: SM      U1      
 Computing Diagnostic #    223  SIuice       Counter:       4   Parms: UU      M1      
           Vector  Mate for  SIuice       Diagnostic #    224  SIvice   exists 
 Computing Diagnostic #    224  SIvice       Counter:       4   Parms: VV      M1      
           Vector  Mate for  SIvice       Diagnostic #    223  SIuice   exists 
 Computing Diagnostic #    225  SItaux       Counter:       4   Parms: UU      U1      
           Vector  Mate for  SItaux       Diagnostic #    226  SItauy   exists 
 Computing Diagnostic #    226  SItauy       Counter:       4   Parms: VV      U1      
           Vector  Mate for  SItauy       Diagnostic #    225  SItaux   exists 
 Computing Diagnostic #    285  SIareaN      Counter:       4   Parms: SM      MX      
 Computing Diagnostic #    284  SIheffN      Counter:       4   Parms: SM      MX      
 Computing Diagnostic #    286  SIhsnowN     Counter:       4   Parms: SM      MX      
 Compute Stats, Diag. #    214  SIarea    vol(   0 ): 3.580E+14  Parms: SM      M1      
 Compute Stats, Diag. #    217  SIheff    vol(   0 ): 3.580E+14  Parms: SM      M1      
 Compute Stats, Diag. #    219  SIhsnow   vol(   0 ): 3.580E+14  Parms: SM      M1      
 Compute Stats, Diag. #     83  sIceLoad  vol(   0 ): 3.580E+14  Parms: SM      U1      
 Compute Stats, Diag. #    223  SIuice    vol(   0 ): 3.513E+14  Parms: UU      M1      
 Compute Stats, Diag. #    224  SIvice    vol(   0 ): 3.508E+14  Parms: VV      M1      
 Compute Stats, Diag. #    225  SItaux    vol(   0 ): 3.513E+14  Parms: UU      U1      
 Compute Stats, Diag. #    226  SItauy    vol(   0 ): 3.508E+14  Parms: VV      U1      
 cg2d: Sum(rhs),rhsMax =   7.30767105740989E+01  2.97086515149861E-01
 Compute Stats, Diag. #    214  SIarea    vol(   0 ): 3.580E+14  Parms: SM      M1      
 Compute Stats, Diag. #    217  SIheff    vol(   0 ): 3.580E+14  Parms: SM      M1      
 Compute Stats, Diag. #    219  SIhsnow   vol(   0 ): 3.580E+14  Parms: SM      M1      
 Compute Stats, Diag. #     83  sIceLoad  vol(   0 ): 3.580E+14  Parms: SM      U1      
 Compute Stats, Diag. #    223  SIuice    vol(   0 ): 3.513E+14  Parms: UU      M1      
 Compute Stats, Diag. #    224  SIvice    vol(   0 ): 3.508E+14  Parms: VV      M1      
 Compute Stats, Diag. #    225  SItaux    vol(   0 ): 3.513E+14  Parms: UU      U1      
 Compute Stats, Diag. #    226  SItauy    vol(   0 ): 3.508E+14  Parms: VV      U1      
 cg2d: Sum(rhs),rhsMax =   7.31058899720028E+01  2.97246972153580E-01
 Compute Stats, Diag. #    214  SIarea    vol(   0 ): 3.580E+14  Parms: SM      M1      
 Compute Stats, Diag. #    217  SIheff    vol(   0 ): 3.580E+14  Parms: SM      M1      
 Compute Stats, Diag. #    219  SIhsnow   vol(   0 ): 3.580E+14  Parms: SM      M1      
 Compute Stats, Diag. #     83  sIceLoad  vol(   0 ): 3.580E+14  Parms: SM      U1      
 Compute Stats, Diag. #    223  SIuice    vol(   0 ): 3.513E+14  Parms: UU      M1      
 Compute Stats, Diag. #    224  SIvice    vol(   0 ): 3.508E+14  Parms: VV      M1      
 Compute Stats, Diag. #    225  SItaux    vol(   0 ): 3.513E+14  Parms: UU      U1      
 Compute Stats, Diag. #    226  SItauy    vol(   0 ): 3.508E+14  Parms: VV      U1      
 cg2d: Sum(rhs),rhsMax =   7.31193833414563E+01  2.97495795939675E-01
 Compute Stats, Diag. #    214  SIarea    vol(   0 ): 3.580E+14  Parms: SM      M1      
 Compute Stats, Diag. #    217  SIheff    vol(   0 ): 3.580E+14  Parms: SM      M1      
 Compute Stats, Diag. #    219  SIhsnow   vol(   0 ): 3.580E+14  Parms: SM      M1      
 Compute Stats, Diag. #     83  sIceLoad  vol(   0 ): 3.580E+14  Parms: SM      U1      
 Compute Stats, Diag. #    223  SIuice    vol(   0 ): 3.513E+14  Parms: UU      M1      
 Compute Stats, Diag. #    224  SIvice    vol(   0 ): 3.508E+14  Parms: VV      M1      
 Compute Stats, Diag. #    225  SItaux    vol(   0 ): 3.513E+14  Parms: UU      U1      
 Compute Stats, Diag. #    226  SItauy    vol(   0 ): 3.508E+14  Parms: VV      U1      
 cg2d: Sum(rhs),rhsMax =   7.31148559183053E+01  2.97796444341881E-01
(PID.TID 0000.0001)      cg2d_init_res =   4.18454671474783E-01
(PID.TID 0000.0001)      cg2d_iters(min,last) =      -1      31
(PID.TID 0000.0001)      cg2d_last_res =   2.40828804280770E-05
(PID.TID 0000.0001) // =======================================================
(PID.TID 0000.0001) // Begin MONITOR dynamic field statistics
(PID.TID 0000.0001) // =======================================================
(PID.TID 0000.0001) %MON time_tsnumber                =                    48
(PID.TID 0000.0001) %MON time_secondsf                =   4.3200000000000E+04
(PID.TID 0000.0001) %MON dynstat_eta_max              =   1.1346728760208E+00
(PID.TID 0000.0001) %MON dynstat_eta_min              =  -3.4887045892211E+00
(PID.TID 0000.0001) %MON dynstat_eta_mean             =  -2.3128564060522E-03
(PID.TID 0000.0001) %MON dynstat_eta_sd               =   7.1367212862038E-01
(PID.TID 0000.0001) %MON dynstat_eta_del2             =   8.8812584579780E-05
(PID.TID 0000.0001) %MON dynstat_uvel_max             =   7.4035822193897E-01
(PID.TID 0000.0001) %MON dynstat_uvel_min             =  -1.3517708998110E+00
(PID.TID 0000.0001) %MON dynstat_uvel_mean            =   1.7485414775664E-03
(PID.TID 0000.0001) %MON dynstat_uvel_sd              =   2.1755955672230E-02
(PID.TID 0000.0001) %MON dynstat_uvel_del2            =   1.3380913548374E-05
(PID.TID 0000.0001) %MON dynstat_vvel_max             =   1.2458187895791E+00
(PID.TID 0000.0001) %MON dynstat_vvel_min             =  -9.2801991548392E-01
(PID.TID 0000.0001) %MON dynstat_vvel_mean            =   1.5413637813947E-03
(PID.TID 0000.0001) %MON dynstat_vvel_sd              =   2.3165276439343E-02
(PID.TID 0000.0001) %MON dynstat_vvel_del2            =   1.4080593100380E-05
(PID.TID 0000.0001) %MON dynstat_wvel_max             =   3.3980244668047E-03
(PID.TID 0000.0001) %MON dynstat_wvel_min             =  -3.4334140417729E-03
(PID.TID 0000.0001) %MON dynstat_wvel_mean            =   5.5685480881322E-08
(PID.TID 0000.0001) %MON dynstat_wvel_sd              =   3.5407157446407E-05
(PID.TID 0000.0001) %MON dynstat_wvel_del2            =   5.3925859937020E-08
(PID.TID 0000.0001) %MON dynstat_theta_max            =   3.2670123923412E+01
(PID.TID 0000.0001) %MON dynstat_theta_min            =  -2.0423587558986E+00
(PID.TID 0000.0001) %MON dynstat_theta_mean           =   3.5905532704841E+00
(PID.TID 0000.0001) %MON dynstat_theta_sd             =   4.4363973427167E+00
(PID.TID 0000.0001) %MON dynstat_theta_del2           =   1.0687348685437E-04
(PID.TID 0000.0001) %MON dynstat_salt_max             =   4.0711524274613E+01
(PID.TID 0000.0001) %MON dynstat_salt_min             =   1.8869487103246E+01
(PID.TID 0000.0001) %MON dynstat_salt_mean            =   3.4725642987344E+01
(PID.TID 0000.0001) %MON dynstat_salt_sd              =   3.7722325305492E-01
(PID.TID 0000.0001) %MON dynstat_salt_del2            =   2.8122109664802E-05
(PID.TID 0000.0001) %MON dynstat_sst_max              =   3.2670123923412E+01
(PID.TID 0000.0001) %MON dynstat_sst_min              =  -1.9261073096884E+00
(PID.TID 0000.0001) %MON dynstat_sst_mean             =   1.8484576559479E+01
(PID.TID 0000.0001) %MON dynstat_sst_sd               =   1.0105527654427E+01
(PID.TID 0000.0001) %MON dynstat_sst_del2             =   8.6536562289347E-04
(PID.TID 0000.0001) %MON dynstat_sss_max              =   3.9472729388803E+01
(PID.TID 0000.0001) %MON dynstat_sss_min              =   1.8869487103246E+01
(PID.TID 0000.0001) %MON dynstat_sss_mean             =   3.4683287785445E+01
(PID.TID 0000.0001) %MON dynstat_sss_sd               =   1.1236044768374E+00
(PID.TID 0000.0001) %MON dynstat_sss_del2             =   5.5304008377192E-04
(PID.TID 0000.0001) %MON forcing_qnet_max             =   3.1445420593901E+03
(PID.TID 0000.0001) %MON forcing_qnet_min             =  -1.1002483718371E+03
(PID.TID 0000.0001) %MON forcing_qnet_mean            =   5.7378893186634E+01
(PID.TID 0000.0001) %MON forcing_qnet_sd              =   1.7687267666218E+02
(PID.TID 0000.0001) %MON forcing_qnet_del2            =   4.8706816150583E-01
(PID.TID 0000.0001) %MON forcing_qsw_max              =   0.0000000000000E+00
(PID.TID 0000.0001) %MON forcing_qsw_min              =  -1.1133760083406E+02
(PID.TID 0000.0001) %MON forcing_qsw_mean             =  -1.3431731428892E+01
(PID.TID 0000.0001) %MON forcing_qsw_sd               =   2.4644775219088E+01
(PID.TID 0000.0001) %MON forcing_qsw_del2             =   1.9365111839682E-02
(PID.TID 0000.0001) %MON forcing_empmr_max            =   3.3680556807667E-03
(PID.TID 0000.0001) %MON forcing_empmr_min            =  -1.3670253753662E-01
(PID.TID 0000.0001) %MON forcing_empmr_mean           =  -1.6374460289871E-07
(PID.TID 0000.0001) %MON forcing_empmr_sd             =   5.2484671370952E-04
(PID.TID 0000.0001) %MON forcing_empmr_del2           =   8.0023258766378E-06
(PID.TID 0000.0001) %MON forcing_fu_max               =   1.1048702597618E+00
(PID.TID 0000.0001) %MON forcing_fu_min               =  -8.5321280360222E-01
(PID.TID 0000.0001) %MON forcing_fu_mean              =   1.0844606690471E-02
(PID.TID 0000.0001) %MON forcing_fu_sd                =   1.1277319675816E-01
(PID.TID 0000.0001) %MON forcing_fu_del2              =   1.5584384809505E-04
(PID.TID 0000.0001) %MON forcing_fv_max               =   7.8579276800156E-01
(PID.TID 0000.0001) %MON forcing_fv_min               =  -7.9311004281044E-01
(PID.TID 0000.0001) %MON forcing_fv_mean              =  -8.9289991232838E-03
(PID.TID 0000.0001) %MON forcing_fv_sd                =   1.1125472844364E-01
(PID.TID 0000.0001) %MON forcing_fv_del2              =   1.4345120356187E-04
(PID.TID 0000.0001) %MON trAdv_CFL_u_max              =   2.1658173169471E-02
(PID.TID 0000.0001) %MON trAdv_CFL_v_max              =   2.3417707672856E-02
(PID.TID 0000.0001) %MON trAdv_CFL_w_max              =   8.6041412176517E-02
(PID.TID 0000.0001) %MON advcfl_uvel_max              =   2.2364935257867E-02
(PID.TID 0000.0001) %MON advcfl_vvel_max              =   2.2114261836111E-02
(PID.TID 0000.0001) %MON advcfl_wvel_max              =   8.3313809857852E-02
(PID.TID 0000.0001) %MON advcfl_W_hf_max              =   8.4449744284843E-02
(PID.TID 0000.0001) %MON pe_b_mean                    =   6.6997806087417E-04
(PID.TID 0000.0001) %MON ke_max                       =   9.3475463404898E-01
(PID.TID 0000.0001) %MON ke_mean                      =   4.8961313539404E-04
(PID.TID 0000.0001) %MON ke_vol                       =   1.3349970488534E+18
(PID.TID 0000.0001) %MON vort_r_min                   =  -3.8919845105839E-05
(PID.TID 0000.0001) %MON vort_r_max                   =   3.7377927103462E-05
(PID.TID 0000.0001) %MON vort_a_mean                  =  -1.9727864647440E-05
(PID.TID 0000.0001) %MON vort_a_sd                    =   7.4543359512946E-05
(PID.TID 0000.0001) %MON vort_p_mean                  =  -2.1760543722861E-05
(PID.TID 0000.0001) %MON vort_p_sd                    =   9.7244242609654E-05
(PID.TID 0000.0001) %MON surfExpan_theta_mean         =  -2.3067792599092E-06
(PID.TID 0000.0001) %MON surfExpan_salt_mean          =  -2.0878394473167E-07
(PID.TID 0000.0001) // =======================================================
(PID.TID 0000.0001) // End MONITOR dynamic field statistics
(PID.TID 0000.0001) // =======================================================
(PID.TID 0000.0001) // =======================================================
(PID.TID 0000.0001) // Begin MONITOR SEAICE statistics
(PID.TID 0000.0001) // =======================================================
(PID.TID 0000.0001) %MON seaice_tsnumber              =                    48
(PID.TID 0000.0001) %MON seaice_time_sec              =   4.3200000000000E+04
(PID.TID 0000.0001) %MON seaice_uice_max              =   4.0000000000000E-01
(PID.TID 0000.0001) %MON seaice_uice_min              =  -4.0000000000000E-01
(PID.TID 0000.0001) %MON seaice_uice_mean             =  -8.3054598624025E-03
(PID.TID 0000.0001) %MON seaice_uice_sd               =   1.9802383574176E-01
(PID.TID 0000.0001) %MON seaice_uice_del2             =   2.2931571122150E-04
(PID.TID 0000.0001) %MON seaice_vice_max              =   4.0000000000000E-01
(PID.TID 0000.0001) %MON seaice_vice_min              =  -4.0000000000000E-01
(PID.TID 0000.0001) %MON seaice_vice_mean             =  -2.1960776359499E-02
(PID.TID 0000.0001) %MON seaice_vice_sd               =   2.1302038025672E-01
(PID.TID 0000.0001) %MON seaice_vice_del2             =   2.3932563818061E-04
(PID.TID 0000.0001) %MON seaice_area_max              =   1.0000000000000E+00
(PID.TID 0000.0001) %MON seaice_area_min              =   0.0000000000000E+00
(PID.TID 0000.0001) %MON seaice_area_mean             =   7.1209400295195E-02
(PID.TID 0000.0001) %MON seaice_area_sd               =   2.3737472327928E-01
(PID.TID 0000.0001) %MON seaice_area_del2             =   4.7040756693742E-04
(PID.TID 0000.0001) %MON seaice_heff_max              =   2.5265902349725E+01
(PID.TID 0000.0001) %MON seaice_heff_min              =   0.0000000000000E+00
(PID.TID 0000.0001) %MON seaice_heff_mean             =   2.1678895658159E-01
(PID.TID 0000.0001) %MON seaice_heff_sd               =   1.0691702081632E+00
(PID.TID 0000.0001) %MON seaice_heff_del2             =   3.9181964665311E-03
(PID.TID 0000.0001) %MON seaice_hsnow_max             =   8.3448337206210E+00
(PID.TID 0000.0001) %MON seaice_hsnow_min             =   0.0000000000000E+00
(PID.TID 0000.0001) %MON seaice_hsnow_mean            =   2.4618243903983E-02
(PID.TID 0000.0001) %MON seaice_hsnow_sd              =   1.5801551422187E-01
(PID.TID 0000.0001) %MON seaice_hsnow_del2            =   1.2558686731595E-03
(PID.TID 0000.0001) // =======================================================
(PID.TID 0000.0001) // End MONITOR SEAICE statistics
(PID.TID 0000.0001) // =======================================================
 Computing Diagnostic #     86  oceQnet      Counter:       4   Parms: SM      U1      
 Computing Diagnostic #     87  oceQsw       Counter:       4   Parms: SM      U1      
 Computing Diagnostic #     84  oceFWflx     Counter:       4   Parms: SM      U1      
 Computing Diagnostic #     85  oceSflux     Counter:       4   Parms: SM      U1      
 Computing Diagnostic #     80  oceTAUX      Counter:       4   Parms: UU      U1      
           Vector  Mate for  oceTAUX      Diagnostic #     81  oceTAUY  exists 
 Computing Diagnostic #     81  oceTAUY      Counter:       4   Parms: VV      U1      
           Vector  Mate for  oceTAUY      Diagnostic #     80  oceTAUX  exists 
 Computing Diagnostic #     26  THETA        Counter:       4   Parms: SMR     MR      
 Computing Diagnostic #     27  SALT         Counter:       4   Parms: SMR     MR      
 Computing Diagnostic #     30  UVEL         Counter:       4   Parms: UUR     MR      
           Vector  Mate for  UVEL         Diagnostic #     31  VVEL     exists 
 Computing Diagnostic #     31  VVEL         Counter:       4   Parms: VVR     MR      
           Vector  Mate for  VVEL         Diagnostic #     30  UVEL     exists 
 Computing Diagnostic #    214  SIarea       Counter:       4   Parms: SM      M1      
 Computing Diagnostic #    217  SIheff       Counter:       4   Parms: SM      M1      
 Computing Diagnostic #    219  SIhsnow      Counter:       4   Parms: SM      M1      
 Computing Diagnostic #     83  sIceLoad     Counter:       4   Parms: SM      U1      
 Computing Diagnostic #    223  SIuice       Counter:       4   Parms: UU      M1      
           Vector  Mate for  SIuice       Diagnostic #    224  SIvice   exists 
 Computing Diagnostic #    224  SIvice       Counter:       4   Parms: VV      M1      
           Vector  Mate for  SIvice       Diagnostic #    223  SIuice   exists 
 Computing Diagnostic #    225  SItaux       Counter:       4   Parms: UU      U1      
           Vector  Mate for  SItaux       Diagnostic #    226  SItauy   exists 
 Computing Diagnostic #    226  SItauy       Counter:       4   Parms: VV      U1      
           Vector  Mate for  SItauy       Diagnostic #    225  SItaux   exists 
 Computing Diagnostic #    285  SIareaN      Counter:       4   Parms: SM      MX      
 Computing Diagnostic #    284  SIheffN      Counter:       4   Parms: SM      MX      
 Computing Diagnostic #    286  SIhsnowN     Counter:       4   Parms: SM      MX      
 Compute Stats, Diag. #    214  SIarea    vol(   0 ): 3.580E+14  Parms: SM      M1      
 Compute Stats, Diag. #    217  SIheff    vol(   0 ): 3.580E+14  Parms: SM      M1      
 Compute Stats, Diag. #    219  SIhsnow   vol(   0 ): 3.580E+14  Parms: SM      M1      
 Compute Stats, Diag. #     83  sIceLoad  vol(   0 ): 3.580E+14  Parms: SM      U1      
 Compute Stats, Diag. #    223  SIuice    vol(   0 ): 3.513E+14  Parms: UU      M1      
 Compute Stats, Diag. #    224  SIvice    vol(   0 ): 3.508E+14  Parms: VV      M1      
 Compute Stats, Diag. #    225  SItaux    vol(   0 ): 3.513E+14  Parms: UU      U1      
 Compute Stats, Diag. #    226  SItauy    vol(   0 ): 3.508E+14  Parms: VV      U1      
 cg2d: Sum(rhs),rhsMax =   7.30927326544365E+01  2.98111558630373E-01
 Compute Stats, Diag. #    214  SIarea    vol(   0 ): 3.580E+14  Parms: SM      M1      
 Compute Stats, Diag. #    217  SIheff    vol(   0 ): 3.580E+14  Parms: SM      M1      
 Compute Stats, Diag. #    219  SIhsnow   vol(   0 ): 3.580E+14  Parms: SM      M1      
 Compute Stats, Diag. #     83  sIceLoad  vol(   0 ): 3.580E+14  Parms: SM      U1      
 Compute Stats, Diag. #    223  SIuice    vol(   0 ): 3.513E+14  Parms: UU      M1      
 Compute Stats, Diag. #    224  SIvice    vol(   0 ): 3.508E+14  Parms: VV      M1      
 Compute Stats, Diag. #    225  SItaux    vol(   0 ): 3.513E+14  Parms: UU      U1      
 Compute Stats, Diag. #    226  SItauy    vol(   0 ): 3.508E+14  Parms: VV      U1      
 cg2d: Sum(rhs),rhsMax =   7.30615754799334E+01  2.98405846704738E-01
 Compute Stats, Diag. #    214  SIarea    vol(   0 ): 3.580E+14  Parms: SM      M1      
 Compute Stats, Diag. #    217  SIheff    vol(   0 ): 3.580E+14  Parms: SM      M1      
 Compute Stats, Diag. #    219  SIhsnow   vol(   0 ): 3.580E+14  Parms: SM      M1      
 Compute Stats, Diag. #     83  sIceLoad  vol(   0 ): 3.580E+14  Parms: SM      U1      
 Compute Stats, Diag. #    223  SIuice    vol(   0 ): 3.513E+14  Parms: UU      M1      
 Compute Stats, Diag. #    224  SIvice    vol(   0 ): 3.508E+14  Parms: VV      M1      
 Compute Stats, Diag. #    225  SItaux    vol(   0 ): 3.513E+14  Parms: UU      U1      
 Compute Stats, Diag. #    226  SItauy    vol(   0 ): 3.508E+14  Parms: VV      U1      
 cg2d: Sum(rhs),rhsMax =   7.30218555199981E+01  2.98650545044699E-01
 Compute Stats, Diag. #    214  SIarea    vol(   0 ): 3.580E+14  Parms: SM      M1      
 Compute Stats, Diag. #    217  SIheff    vol(   0 ): 3.580E+14  Parms: SM      M1      
 Compute Stats, Diag. #    219  SIhsnow   vol(   0 ): 3.580E+14  Parms: SM      M1      
 Compute Stats, Diag. #     83  sIceLoad  vol(   0 ): 3.580E+14  Parms: SM      U1      
 Compute Stats, Diag. #    223  SIuice    vol(   0 ): 3.513E+14  Parms: UU      M1      
 Compute Stats, Diag. #    224  SIvice    vol(   0 ): 3.508E+14  Parms: VV      M1      
 Compute Stats, Diag. #    225  SItaux    vol(   0 ): 3.513E+14  Parms: UU      U1      
 Compute Stats, Diag. #    226  SItauy    vol(   0 ): 3.508E+14  Parms: VV      U1      
 cg2d: Sum(rhs),rhsMax =   7.29805081364610E+01  2.98824433658864E-01
 Computing Diagnostic #     86  oceQnet      Counter:       4   Parms: SM      U1      
 Computing Diagnostic #     87  oceQsw       Counter:       4   Parms: SM      U1      
 Computing Diagnostic #     84  oceFWflx     Counter:       4   Parms: SM      U1      
 Computing Diagnostic #     85  oceSflux     Counter:       4   Parms: SM      U1      
 Computing Diagnostic #     80  oceTAUX      Counter:       4   Parms: UU      U1      
           Vector  Mate for  oceTAUX      Diagnostic #     81  oceTAUY  exists 
 Computing Diagnostic #     81  oceTAUY      Counter:       4   Parms: VV      U1      
           Vector  Mate for  oceTAUY      Diagnostic #     80  oceTAUX  exists 
 Computing Diagnostic #     26  THETA        Counter:       4   Parms: SMR     MR      
 Computing Diagnostic #     27  SALT         Counter:       4   Parms: SMR     MR      
 Computing Diagnostic #     30  UVEL         Counter:       4   Parms: UUR     MR      
           Vector  Mate for  UVEL         Diagnostic #     31  VVEL     exists 
 Computing Diagnostic #     31  VVEL         Counter:       4   Parms: VVR     MR      
           Vector  Mate for  VVEL         Diagnostic #     30  UVEL     exists 
 Computing Diagnostic #    214  SIarea       Counter:       4   Parms: SM      M1      
 Computing Diagnostic #    217  SIheff       Counter:       4   Parms: SM      M1      
 Computing Diagnostic #    219  SIhsnow      Counter:       4   Parms: SM      M1      
 Computing Diagnostic #     83  sIceLoad     Counter:       4   Parms: SM      U1      
 Computing Diagnostic #    223  SIuice       Counter:       4   Parms: UU      M1      
           Vector  Mate for  SIuice       Diagnostic #    224  SIvice   exists 
 Computing Diagnostic #    224  SIvice       Counter:       4   Parms: VV      M1      
           Vector  Mate for  SIvice       Diagnostic #    223  SIuice   exists 
 Computing Diagnostic #    225  SItaux       Counter:       4   Parms: UU      U1      
           Vector  Mate for  SItaux       Diagnostic #    226  SItauy   exists 
 Computing Diagnostic #    226  SItauy       Counter:       4   Parms: VV      U1      
           Vector  Mate for  SItauy       Diagnostic #    225  SItaux   exists 
 Computing Diagnostic #    285  SIareaN      Counter:       4   Parms: SM      MX      
 Computing Diagnostic #    284  SIheffN      Counter:       4   Parms: SM      MX      
 Computing Diagnostic #    286  SIhsnowN     Counter:       4   Parms: SM      MX      
 Compute Stats, Diag. #    214  SIarea    vol(   0 ): 3.580E+14  Parms: SM      M1      
 Compute Stats, Diag. #    217  SIheff    vol(   0 ): 3.580E+14  Parms: SM      M1      
 Compute Stats, Diag. #    219  SIhsnow   vol(   0 ): 3.580E+14  Parms: SM      M1      
 Compute Stats, Diag. #     83  sIceLoad  vol(   0 ): 3.580E+14  Parms: SM      U1      
 Compute Stats, Diag. #    223  SIuice    vol(   0 ): 3.513E+14  Parms: UU      M1      
 Compute Stats, Diag. #    224  SIvice    vol(   0 ): 3.508E+14  Parms: VV      M1      
 Compute Stats, Diag. #    225  SItaux    vol(   0 ): 3.513E+14  Parms: UU      U1      
 Compute Stats, Diag. #    226  SItauy    vol(   0 ): 3.508E+14  Parms: VV      U1      
 cg2d: Sum(rhs),rhsMax =   7.29300123505790E+01  2.98916590794144E-01
 Compute Stats, Diag. #    214  SIarea    vol(   0 ): 3.580E+14  Parms: SM      M1      
 Compute Stats, Diag. #    217  SIheff    vol(   0 ): 3.580E+14  Parms: SM      M1      
 Compute Stats, Diag. #    219  SIhsnow   vol(   0 ): 3.580E+14  Parms: SM      M1      
 Compute Stats, Diag. #     83  sIceLoad  vol(   0 ): 3.580E+14  Parms: SM      U1      
 Compute Stats, Diag. #    223  SIuice    vol(   0 ): 3.513E+14  Parms: UU      M1      
 Compute Stats, Diag. #    224  SIvice    vol(   0 ): 3.508E+14  Parms: VV      M1      
 Compute Stats, Diag. #    225  SItaux    vol(   0 ): 3.513E+14  Parms: UU      U1      
 Compute Stats, Diag. #    226  SItauy    vol(   0 ): 3.508E+14  Parms: VV      U1      
 cg2d: Sum(rhs),rhsMax =   7.28740929356767E+01  2.98924751227520E-01
 Compute Stats, Diag. #    214  SIarea    vol(   0 ): 3.580E+14  Parms: SM      M1      
 Compute Stats, Diag. #    217  SIheff    vol(   0 ): 3.580E+14  Parms: SM      M1      
 Compute Stats, Diag. #    219  SIhsnow   vol(   0 ): 3.580E+14  Parms: SM      M1      
 Compute Stats, Diag. #     83  sIceLoad  vol(   0 ): 3.580E+14  Parms: SM      U1      
 Compute Stats, Diag. #    223  SIuice    vol(   0 ): 3.513E+14  Parms: UU      M1      
 Compute Stats, Diag. #    224  SIvice    vol(   0 ): 3.508E+14  Parms: VV      M1      
 Compute Stats, Diag. #    225  SItaux    vol(   0 ): 3.513E+14  Parms: UU      U1      
 Compute Stats, Diag. #    226  SItauy    vol(   0 ): 3.508E+14  Parms: VV      U1      
 cg2d: Sum(rhs),rhsMax =   7.28062395688313E+01  2.98856473492452E-01
 Compute Stats, Diag. #    214  SIarea    vol(   0 ): 3.580E+14  Parms: SM      M1      
 Compute Stats, Diag. #    217  SIheff    vol(   0 ): 3.580E+14  Parms: SM      M1      
 Compute Stats, Diag. #    219  SIhsnow   vol(   0 ): 3.580E+14  Parms: SM      M1      
 Compute Stats, Diag. #     83  sIceLoad  vol(   0 ): 3.580E+14  Parms: SM      U1      
 Compute Stats, Diag. #    223  SIuice    vol(   0 ): 3.513E+14  Parms: UU      M1      
 Compute Stats, Diag. #    224  SIvice    vol(   0 ): 3.508E+14  Parms: VV      M1      
 Compute Stats, Diag. #    225  SItaux    vol(   0 ): 3.513E+14  Parms: UU      U1      
 Compute Stats, Diag. #    226  SItauy    vol(   0 ): 3.508E+14  Parms: VV      U1      
 cg2d: Sum(rhs),rhsMax =   7.27295161961967E+01  2.98726217092419E-01
(PID.TID 0000.0001)      cg2d_init_res =   3.84565240531442E-01
(PID.TID 0000.0001)      cg2d_iters(min,last) =      -1      32
(PID.TID 0000.0001)      cg2d_last_res =   2.67530901358213E-05
(PID.TID 0000.0001) // =======================================================
(PID.TID 0000.0001) // Begin MONITOR dynamic field statistics
(PID.TID 0000.0001) // =======================================================
(PID.TID 0000.0001) %MON time_tsnumber                =                    56
(PID.TID 0000.0001) %MON time_secondsf                =   5.0400000000000E+04
(PID.TID 0000.0001) %MON dynstat_eta_max              =   1.0869541460250E+00
(PID.TID 0000.0001) %MON dynstat_eta_min              =  -3.2720654001698E+00
(PID.TID 0000.0001) %MON dynstat_eta_mean             =  -2.3006668799482E-03
(PID.TID 0000.0001) %MON dynstat_eta_sd               =   7.0844100899127E-01
(PID.TID 0000.0001) %MON dynstat_eta_del2             =   8.8853251435780E-05
(PID.TID 0000.0001) %MON dynstat_uvel_max             =   1.0914606995266E+00
(PID.TID 0000.0001) %MON dynstat_uvel_min             =  -1.3490525037470E+00
(PID.TID 0000.0001) %MON dynstat_uvel_mean            =   1.7123874465241E-03
(PID.TID 0000.0001) %MON dynstat_uvel_sd              =   2.1719202911728E-02
(PID.TID 0000.0001) %MON dynstat_uvel_del2            =   1.3355417802603E-05
(PID.TID 0000.0001) %MON dynstat_vvel_max             =   1.3282353910209E+00
(PID.TID 0000.0001) %MON dynstat_vvel_min             =  -1.2316502702234E+00
(PID.TID 0000.0001) %MON dynstat_vvel_mean            =   1.5898587580127E-03
(PID.TID 0000.0001) %MON dynstat_vvel_sd              =   2.3018842144724E-02
(PID.TID 0000.0001) %MON dynstat_vvel_del2            =   1.3868056208647E-05
(PID.TID 0000.0001) %MON dynstat_wvel_max             =   3.7100351321208E-03
(PID.TID 0000.0001) %MON dynstat_wvel_min             =  -2.5898629075804E-03
(PID.TID 0000.0001) %MON dynstat_wvel_mean            =   6.4354217222445E-08
(PID.TID 0000.0001) %MON dynstat_wvel_sd              =   3.4596222732869E-05
(PID.TID 0000.0001) %MON dynstat_wvel_del2            =   5.4081216065764E-08
(PID.TID 0000.0001) %MON dynstat_theta_max            =   3.2643254139731E+01
(PID.TID 0000.0001) %MON dynstat_theta_min            =  -2.0423213085011E+00
(PID.TID 0000.0001) %MON dynstat_theta_mean           =   3.5905298852264E+00
(PID.TID 0000.0001) %MON dynstat_theta_sd             =   4.4362974458263E+00
(PID.TID 0000.0001) %MON dynstat_theta_del2           =   1.0629228537817E-04
(PID.TID 0000.0001) %MON dynstat_salt_max             =   4.0711525721382E+01
(PID.TID 0000.0001) %MON dynstat_salt_min             =   1.8870397389165E+01
(PID.TID 0000.0001) %MON dynstat_salt_mean            =   3.4725634036197E+01
(PID.TID 0000.0001) %MON dynstat_salt_sd              =   3.7718425729606E-01
(PID.TID 0000.0001) %MON dynstat_salt_del2            =   2.8841161077516E-05
(PID.TID 0000.0001) %MON dynstat_sst_max              =   3.2640212515858E+01
(PID.TID 0000.0001) %MON dynstat_sst_min              =  -1.9044680478412E+00
(PID.TID 0000.0001) %MON dynstat_sst_mean             =   1.8480463537090E+01
(PID.TID 0000.0001) %MON dynstat_sst_sd               =   1.0106104081002E+01
(PID.TID 0000.0001) %MON dynstat_sst_del2             =   8.6214376666314E-04
(PID.TID 0000.0001) %MON dynstat_sss_max              =   3.9445248364255E+01
(PID.TID 0000.0001) %MON dynstat_sss_min              =   1.8870397389165E+01
(PID.TID 0000.0001) %MON dynstat_sss_mean             =   3.4683690811376E+01
(PID.TID 0000.0001) %MON dynstat_sss_sd               =   1.1240886210983E+00
(PID.TID 0000.0001) %MON dynstat_sss_del2             =   6.1597403448264E-04
(PID.TID 0000.0001) %MON forcing_qnet_max             =   6.9335447421710E+03
(PID.TID 0000.0001) %MON forcing_qnet_min             =  -7.3582727050781E+02
(PID.TID 0000.0001) %MON forcing_qnet_mean            =   4.4140427624839E+01
(PID.TID 0000.0001) %MON forcing_qnet_sd              =   1.8057397063475E+02
(PID.TID 0000.0001) %MON forcing_qnet_del2            =   5.4988705344125E-01
(PID.TID 0000.0001) %MON forcing_qsw_max              =   0.0000000000000E+00
(PID.TID 0000.0001) %MON forcing_qsw_min              =  -9.8475771368882E+01
(PID.TID 0000.0001) %MON forcing_qsw_mean             =  -1.4424368323698E+01
(PID.TID 0000.0001) %MON forcing_qsw_sd               =   2.4155776939252E+01
(PID.TID 0000.0001) %MON forcing_qsw_del2             =   2.1275390189756E-02
(PID.TID 0000.0001) %MON forcing_empmr_max            =   2.5394693948328E-03
(PID.TID 0000.0001) %MON forcing_empmr_min            =  -1.1560893058777E-01
(PID.TID 0000.0001) %MON forcing_empmr_mean           =  -2.7748760763992E-06
(PID.TID 0000.0001) %MON forcing_empmr_sd             =   4.3116532915065E-04
(PID.TID 0000.0001) %MON forcing_empmr_del2           =   6.3002281958427E-06
(PID.TID 0000.0001) %MON forcing_fu_max               =   1.0968547463417E+00
(PID.TID 0000.0001) %MON forcing_fu_min               =  -7.9770901799202E-01
(PID.TID 0000.0001) %MON forcing_fu_mean              =   1.0240401240866E-02
(PID.TID 0000.0001) %MON forcing_fu_sd                =   1.1132053137638E-01
(PID.TID 0000.0001) %MON forcing_fu_del2              =   1.5370326183770E-04
(PID.TID 0000.0001) %MON forcing_fv_max               =   8.1027036905289E-01
(PID.TID 0000.0001) %MON forcing_fv_min               =  -8.5466417670250E-01
(PID.TID 0000.0001) %MON forcing_fv_mean              =  -8.7341683359525E-03
(PID.TID 0000.0001) %MON forcing_fv_sd                =   1.1051127685490E-01
(PID.TID 0000.0001) %MON forcing_fv_del2              =   1.4589336864727E-04
(PID.TID 0000.0001) %MON trAdv_CFL_u_max              =   2.1549979304907E-02
(PID.TID 0000.0001) %MON trAdv_CFL_v_max              =   2.4896690431355E-02
(PID.TID 0000.0001) %MON trAdv_CFL_w_max              =   7.9738875917929E-02
(PID.TID 0000.0001) %MON advcfl_uvel_max              =   2.2319959624804E-02
(PID.TID 0000.0001) %MON advcfl_vvel_max              =   2.5005672825495E-02
(PID.TID 0000.0001) %MON advcfl_wvel_max              =   8.3091469666966E-02
(PID.TID 0000.0001) %MON advcfl_W_hf_max              =   8.8357144457499E-02
(PID.TID 0000.0001) %MON pe_b_mean                    =   6.6019238765816E-04
(PID.TID 0000.0001) %MON ke_max                       =   1.0451184979256E+00
(PID.TID 0000.0001) %MON ke_mean                      =   4.8559407942273E-04
(PID.TID 0000.0001) %MON ke_vol                       =   1.3349970523998E+18
(PID.TID 0000.0001) %MON vort_r_min                   =  -3.9216729851243E-05
(PID.TID 0000.0001) %MON vort_r_max                   =   3.8848130477623E-05
(PID.TID 0000.0001) %MON vort_a_mean                  =  -1.9727864647440E-05
(PID.TID 0000.0001) %MON vort_a_sd                    =   7.4543360576851E-05
(PID.TID 0000.0001) %MON vort_p_mean                  =  -2.1760543753723E-05
(PID.TID 0000.0001) %MON vort_p_sd                    =   9.7244589142623E-05
(PID.TID 0000.0001) %MON surfExpan_theta_mean         =  -2.7700678961496E-06
(PID.TID 0000.0001) %MON surfExpan_salt_mean          =  -2.4949851880175E-07
(PID.TID 0000.0001) // =======================================================
(PID.TID 0000.0001) // End MONITOR dynamic field statistics
(PID.TID 0000.0001) // =======================================================
(PID.TID 0000.0001) // =======================================================
(PID.TID 0000.0001) // Begin MONITOR SEAICE statistics
(PID.TID 0000.0001) // =======================================================
(PID.TID 0000.0001) %MON seaice_tsnumber              =                    56
(PID.TID 0000.0001) %MON seaice_time_sec              =   5.0400000000000E+04
(PID.TID 0000.0001) %MON seaice_uice_max              =   4.0000000000000E-01
(PID.TID 0000.0001) %MON seaice_uice_min              =  -4.0000000000000E-01
(PID.TID 0000.0001) %MON seaice_uice_mean             =  -8.3054598624025E-03
(PID.TID 0000.0001) %MON seaice_uice_sd               =   1.9802383574176E-01
(PID.TID 0000.0001) %MON seaice_uice_del2             =   2.2931571122150E-04
(PID.TID 0000.0001) %MON seaice_vice_max              =   4.0000000000000E-01
(PID.TID 0000.0001) %MON seaice_vice_min              =  -4.0000000000000E-01
(PID.TID 0000.0001) %MON seaice_vice_mean             =  -2.1960776359499E-02
(PID.TID 0000.0001) %MON seaice_vice_sd               =   2.1302038025672E-01
(PID.TID 0000.0001) %MON seaice_vice_del2             =   2.3932563818061E-04
(PID.TID 0000.0001) %MON seaice_area_max              =   1.0000000000000E+00
(PID.TID 0000.0001) %MON seaice_area_min              =   0.0000000000000E+00
(PID.TID 0000.0001) %MON seaice_area_mean             =   7.0969770205260E-02
(PID.TID 0000.0001) %MON seaice_area_sd               =   2.3725041791629E-01
(PID.TID 0000.0001) %MON seaice_area_del2             =   4.6890980597571E-04
(PID.TID 0000.0001) %MON seaice_heff_max              =   2.5261078620329E+01
(PID.TID 0000.0001) %MON seaice_heff_min              =   0.0000000000000E+00
(PID.TID 0000.0001) %MON seaice_heff_mean             =   2.1679472239349E-01
(PID.TID 0000.0001) %MON seaice_heff_sd               =   1.0696761667266E+00
(PID.TID 0000.0001) %MON seaice_heff_del2             =   3.9170692513163E-03
(PID.TID 0000.0001) %MON seaice_hsnow_max             =   8.3432450918772E+00
(PID.TID 0000.0001) %MON seaice_hsnow_min             =   0.0000000000000E+00
(PID.TID 0000.0001) %MON seaice_hsnow_mean            =   2.4617133493880E-02
(PID.TID 0000.0001) %MON seaice_hsnow_sd              =   1.5798783273826E-01
(PID.TID 0000.0001) %MON seaice_hsnow_del2            =   1.2555390298979E-03
(PID.TID 0000.0001) // =======================================================
(PID.TID 0000.0001) // End MONITOR SEAICE statistics
(PID.TID 0000.0001) // =======================================================
 Computing Diagnostic #     86  oceQnet      Counter:       4   Parms: SM      U1      
 Computing Diagnostic #     87  oceQsw       Counter:       4   Parms: SM      U1      
 Computing Diagnostic #     84  oceFWflx     Counter:       4   Parms: SM      U1      
 Computing Diagnostic #     85  oceSflux     Counter:       4   Parms: SM      U1      
 Computing Diagnostic #     80  oceTAUX      Counter:       4   Parms: UU      U1      
           Vector  Mate for  oceTAUX      Diagnostic #     81  oceTAUY  exists 
 Computing Diagnostic #     81  oceTAUY      Counter:       4   Parms: VV      U1      
           Vector  Mate for  oceTAUY      Diagnostic #     80  oceTAUX  exists 
 Computing Diagnostic #     26  THETA        Counter:       4   Parms: SMR     MR      
 Computing Diagnostic #     27  SALT         Counter:       4   Parms: SMR     MR      
 Computing Diagnostic #     30  UVEL         Counter:       4   Parms: UUR     MR      
           Vector  Mate for  UVEL         Diagnostic #     31  VVEL     exists 
 Computing Diagnostic #     31  VVEL         Counter:       4   Parms: VVR     MR      
           Vector  Mate for  VVEL         Diagnostic #     30  UVEL     exists 
 Computing Diagnostic #    214  SIarea       Counter:       4   Parms: SM      M1      
 Computing Diagnostic #    217  SIheff       Counter:       4   Parms: SM      M1      
 Computing Diagnostic #    219  SIhsnow      Counter:       4   Parms: SM      M1      
 Computing Diagnostic #     83  sIceLoad     Counter:       4   Parms: SM      U1      
 Computing Diagnostic #    223  SIuice       Counter:       4   Parms: UU      M1      
           Vector  Mate for  SIuice       Diagnostic #    224  SIvice   exists 
 Computing Diagnostic #    224  SIvice       Counter:       4   Parms: VV      M1      
           Vector  Mate for  SIvice       Diagnostic #    223  SIuice   exists 
 Computing Diagnostic #    225  SItaux       Counter:       4   Parms: UU      U1      
           Vector  Mate for  SItaux       Diagnostic #    226  SItauy   exists 
 Computing Diagnostic #    226  SItauy       Counter:       4   Parms: VV      U1      
           Vector  Mate for  SItauy       Diagnostic #    225  SItaux   exists 
 Computing Diagnostic #    285  SIareaN      Counter:       4   Parms: SM      MX      
 Computing Diagnostic #    284  SIheffN      Counter:       4   Parms: SM      MX      
 Computing Diagnostic #    286  SIhsnowN     Counter:       4   Parms: SM      MX      
 Compute Stats, Diag. #    214  SIarea    vol(   0 ): 3.580E+14  Parms: SM      M1      
 Compute Stats, Diag. #    217  SIheff    vol(   0 ): 3.580E+14  Parms: SM      M1      
 Compute Stats, Diag. #    219  SIhsnow   vol(   0 ): 3.580E+14  Parms: SM      M1      
 Compute Stats, Diag. #     83  sIceLoad  vol(   0 ): 3.580E+14  Parms: SM      U1      
 Compute Stats, Diag. #    223  SIuice    vol(   0 ): 3.513E+14  Parms: UU      M1      
 Compute Stats, Diag. #    224  SIvice    vol(   0 ): 3.508E+14  Parms: VV      M1      
 Compute Stats, Diag. #    225  SItaux    vol(   0 ): 3.513E+14  Parms: UU      U1      
 Compute Stats, Diag. #    226  SItauy    vol(   0 ): 3.508E+14  Parms: VV      U1      
 cg2d: Sum(rhs),rhsMax =   7.26461416644045E+01  2.98554265764688E-01
 Compute Stats, Diag. #    214  SIarea    vol(   0 ): 3.580E+14  Parms: SM      M1      
 Compute Stats, Diag. #    217  SIheff    vol(   0 ): 3.580E+14  Parms: SM      M1      
 Compute Stats, Diag. #    219  SIhsnow   vol(   0 ): 3.580E+14  Parms: SM      M1      
 Compute Stats, Diag. #     83  sIceLoad  vol(   0 ): 3.580E+14  Parms: SM      U1      
 Compute Stats, Diag. #    223  SIuice    vol(   0 ): 3.513E+14  Parms: UU      M1      
 Compute Stats, Diag. #    224  SIvice    vol(   0 ): 3.508E+14  Parms: VV      M1      
 Compute Stats, Diag. #    225  SItaux    vol(   0 ): 3.513E+14  Parms: UU      U1      
 Compute Stats, Diag. #    226  SItauy    vol(   0 ): 3.508E+14  Parms: VV      U1      
 cg2d: Sum(rhs),rhsMax =   7.25580800877301E+01  2.98363870826841E-01
 Compute Stats, Diag. #    214  SIarea    vol(   0 ): 3.580E+14  Parms: SM      M1      
 Compute Stats, Diag. #    217  SIheff    vol(   0 ): 3.580E+14  Parms: SM      M1      
 Compute Stats, Diag. #    219  SIhsnow   vol(   0 ): 3.580E+14  Parms: SM      M1      
 Compute Stats, Diag. #     83  sIceLoad  vol(   0 ): 3.580E+14  Parms: SM      U1      
 Compute Stats, Diag. #    223  SIuice    vol(   0 ): 3.513E+14  Parms: UU      M1      
 Compute Stats, Diag. #    224  SIvice    vol(   0 ): 3.508E+14  Parms: VV      M1      
 Compute Stats, Diag. #    225  SItaux    vol(   0 ): 3.513E+14  Parms: UU      U1      
 Compute Stats, Diag. #    226  SItauy    vol(   0 ): 3.508E+14  Parms: VV      U1      
 cg2d: Sum(rhs),rhsMax =   7.24605128962074E+01  2.98179506038610E-01
 Compute Stats, Diag. #    214  SIarea    vol(   0 ): 3.580E+14  Parms: SM      M1      
 Compute Stats, Diag. #    217  SIheff    vol(   0 ): 3.580E+14  Parms: SM      M1      
 Compute Stats, Diag. #    219  SIhsnow   vol(   0 ): 3.580E+14  Parms: SM      M1      
 Compute Stats, Diag. #     83  sIceLoad  vol(   0 ): 3.580E+14  Parms: SM      U1      
 Compute Stats, Diag. #    223  SIuice    vol(   0 ): 3.513E+14  Parms: UU      M1      
 Compute Stats, Diag. #    224  SIvice    vol(   0 ): 3.508E+14  Parms: VV      M1      
 Compute Stats, Diag. #    225  SItaux    vol(   0 ): 3.513E+14  Parms: UU      U1      
 Compute Stats, Diag. #    226  SItauy    vol(   0 ): 3.508E+14  Parms: VV      U1      
 cg2d: Sum(rhs),rhsMax =   7.23529678919188E+01  2.98024079435374E-01
 Computing Diagnostic #     86  oceQnet      Counter:       4   Parms: SM      U1      
 Computing Diagnostic #     87  oceQsw       Counter:       4   Parms: SM      U1      
 Computing Diagnostic #     84  oceFWflx     Counter:       4   Parms: SM      U1      
 Computing Diagnostic #     85  oceSflux     Counter:       4   Parms: SM      U1      
 Computing Diagnostic #     80  oceTAUX      Counter:       4   Parms: UU      U1      
           Vector  Mate for  oceTAUX      Diagnostic #     81  oceTAUY  exists 
 Computing Diagnostic #     81  oceTAUY      Counter:       4   Parms: VV      U1      
           Vector  Mate for  oceTAUY      Diagnostic #     80  oceTAUX  exists 
 Computing Diagnostic #     26  THETA        Counter:       4   Parms: SMR     MR      
 Computing Diagnostic #     27  SALT         Counter:       4   Parms: SMR     MR      
 Computing Diagnostic #     30  UVEL         Counter:       4   Parms: UUR     MR      
           Vector  Mate for  UVEL         Diagnostic #     31  VVEL     exists 
 Computing Diagnostic #     31  VVEL         Counter:       4   Parms: VVR     MR      
           Vector  Mate for  VVEL         Diagnostic #     30  UVEL     exists 
 Computing Diagnostic #    214  SIarea       Counter:       4   Parms: SM      M1      
 Computing Diagnostic #    217  SIheff       Counter:       4   Parms: SM      M1      
 Computing Diagnostic #    219  SIhsnow      Counter:       4   Parms: SM      M1      
 Computing Diagnostic #     83  sIceLoad     Counter:       4   Parms: SM      U1      
 Computing Diagnostic #    223  SIuice       Counter:       4   Parms: UU      M1      
           Vector  Mate for  SIuice       Diagnostic #    224  SIvice   exists 
 Computing Diagnostic #    224  SIvice       Counter:       4   Parms: VV      M1      
           Vector  Mate for  SIvice       Diagnostic #    223  SIuice   exists 
 Computing Diagnostic #    225  SItaux       Counter:       4   Parms: UU      U1      
           Vector  Mate for  SItaux       Diagnostic #    226  SItauy   exists 
 Computing Diagnostic #    226  SItauy       Counter:       4   Parms: VV      U1      
           Vector  Mate for  SItauy       Diagnostic #    225  SItaux   exists 
 Computing Diagnostic #    285  SIareaN      Counter:       4   Parms: SM      MX      
 Computing Diagnostic #    284  SIheffN      Counter:       4   Parms: SM      MX      
 Computing Diagnostic #    286  SIhsnowN     Counter:       4   Parms: SM      MX      
 Compute Stats, Diag. #    214  SIarea    vol(   0 ): 3.580E+14  Parms: SM      M1      
 Compute Stats, Diag. #    217  SIheff    vol(   0 ): 3.580E+14  Parms: SM      M1      
 Compute Stats, Diag. #    219  SIhsnow   vol(   0 ): 3.580E+14  Parms: SM      M1      
 Compute Stats, Diag. #     83  sIceLoad  vol(   0 ): 3.580E+14  Parms: SM      U1      
 Compute Stats, Diag. #    223  SIuice    vol(   0 ): 3.513E+14  Parms: UU      M1      
 Compute Stats, Diag. #    224  SIvice    vol(   0 ): 3.508E+14  Parms: VV      M1      
 Compute Stats, Diag. #    225  SItaux    vol(   0 ): 3.513E+14  Parms: UU      U1      
 Compute Stats, Diag. #    226  SItauy    vol(   0 ): 3.508E+14  Parms: VV      U1      
 cg2d: Sum(rhs),rhsMax =   7.22443572027172E+01  2.97918125481920E-01
 Compute Stats, Diag. #    214  SIarea    vol(   0 ): 3.580E+14  Parms: SM      M1      
 Compute Stats, Diag. #    217  SIheff    vol(   0 ): 3.580E+14  Parms: SM      M1      
 Compute Stats, Diag. #    219  SIhsnow   vol(   0 ): 3.580E+14  Parms: SM      M1      
 Compute Stats, Diag. #     83  sIceLoad  vol(   0 ): 3.580E+14  Parms: SM      U1      
 Compute Stats, Diag. #    223  SIuice    vol(   0 ): 3.513E+14  Parms: UU      M1      
 Compute Stats, Diag. #    224  SIvice    vol(   0 ): 3.508E+14  Parms: VV      M1      
 Compute Stats, Diag. #    225  SItaux    vol(   0 ): 3.513E+14  Parms: UU      U1      
 Compute Stats, Diag. #    226  SItauy    vol(   0 ): 3.508E+14  Parms: VV      U1      
 cg2d: Sum(rhs),rhsMax =   7.21320321621782E+01  2.97876615425431E-01
 Compute Stats, Diag. #    214  SIarea    vol(   0 ): 3.580E+14  Parms: SM      M1      
 Compute Stats, Diag. #    217  SIheff    vol(   0 ): 3.580E+14  Parms: SM      M1      
 Compute Stats, Diag. #    219  SIhsnow   vol(   0 ): 3.580E+14  Parms: SM      M1      
 Compute Stats, Diag. #     83  sIceLoad  vol(   0 ): 3.580E+14  Parms: SM      U1      
 Compute Stats, Diag. #    223  SIuice    vol(   0 ): 3.513E+14  Parms: UU      M1      
 Compute Stats, Diag. #    224  SIvice    vol(   0 ): 3.508E+14  Parms: VV      M1      
 Compute Stats, Diag. #    225  SItaux    vol(   0 ): 3.513E+14  Parms: UU      U1      
 Compute Stats, Diag. #    226  SItauy    vol(   0 ): 3.508E+14  Parms: VV      U1      
 cg2d: Sum(rhs),rhsMax =   7.20085827049670E+01  2.97910257390539E-01
 Compute Stats, Diag. #    214  SIarea    vol(   0 ): 3.580E+14  Parms: SM      M1      
 Compute Stats, Diag. #    217  SIheff    vol(   0 ): 3.580E+14  Parms: SM      M1      
 Compute Stats, Diag. #    219  SIhsnow   vol(   0 ): 3.580E+14  Parms: SM      M1      
 Compute Stats, Diag. #     83  sIceLoad  vol(   0 ): 3.580E+14  Parms: SM      U1      
 Compute Stats, Diag. #    223  SIuice    vol(   0 ): 3.513E+14  Parms: UU      M1      
 Compute Stats, Diag. #    224  SIvice    vol(   0 ): 3.508E+14  Parms: VV      M1      
 Compute Stats, Diag. #    225  SItaux    vol(   0 ): 3.513E+14  Parms: UU      U1      
 Compute Stats, Diag. #    226  SItauy    vol(   0 ): 3.508E+14  Parms: VV      U1      
 cg2d: Sum(rhs),rhsMax =   7.18798551366823E+01  2.98023633927524E-01
(PID.TID 0000.0001)      cg2d_init_res =   3.59302402814829E-01
(PID.TID 0000.0001)      cg2d_iters(min,last) =      -1      32
(PID.TID 0000.0001)      cg2d_last_res =   2.80129855936450E-05
(PID.TID 0000.0001) // =======================================================
(PID.TID 0000.0001) // Begin MONITOR dynamic field statistics
(PID.TID 0000.0001) // =======================================================
(PID.TID 0000.0001) %MON time_tsnumber                =                    64
(PID.TID 0000.0001) %MON time_secondsf                =   5.7600000000000E+04
(PID.TID 0000.0001) %MON dynstat_eta_max              =   1.0887546851171E+00
(PID.TID 0000.0001) %MON dynstat_eta_min              =  -3.0733544862796E+00
(PID.TID 0000.0001) %MON dynstat_eta_mean             =  -2.2737893869984E-03
(PID.TID 0000.0001) %MON dynstat_eta_sd               =   7.0281661472154E-01
(PID.TID 0000.0001) %MON dynstat_eta_del2             =   8.7506885957029E-05
(PID.TID 0000.0001) %MON dynstat_uvel_max             =   1.0544074781878E+00
(PID.TID 0000.0001) %MON dynstat_uvel_min             =  -1.3562734773549E+00
(PID.TID 0000.0001) %MON dynstat_uvel_mean            =   1.6129684380730E-03
(PID.TID 0000.0001) %MON dynstat_uvel_sd              =   2.1655338362921E-02
(PID.TID 0000.0001) %MON dynstat_uvel_del2            =   1.3354057255513E-05
(PID.TID 0000.0001) %MON dynstat_vvel_max             =   1.3570204147849E+00
(PID.TID 0000.0001) %MON dynstat_vvel_min             =  -1.1351428822222E+00
(PID.TID 0000.0001) %MON dynstat_vvel_mean            =   1.6274846930779E-03
(PID.TID 0000.0001) %MON dynstat_vvel_sd              =   2.2910944476376E-02
(PID.TID 0000.0001) %MON dynstat_vvel_del2            =   1.3679606108689E-05
(PID.TID 0000.0001) %MON dynstat_wvel_max             =   4.2743974742939E-03
(PID.TID 0000.0001) %MON dynstat_wvel_min             =  -2.5021371620994E-03
(PID.TID 0000.0001) %MON dynstat_wvel_mean            =   7.3766112306908E-08
(PID.TID 0000.0001) %MON dynstat_wvel_sd              =   3.3673742590463E-05
(PID.TID 0000.0001) %MON dynstat_wvel_del2            =   5.3709671836172E-08
(PID.TID 0000.0001) %MON dynstat_theta_max            =   3.2639169498855E+01
(PID.TID 0000.0001) %MON dynstat_theta_min            =  -2.0422939974422E+00
(PID.TID 0000.0001) %MON dynstat_theta_mean           =   3.5905134745157E+00
(PID.TID 0000.0001) %MON dynstat_theta_sd             =   4.4362232997909E+00
(PID.TID 0000.0001) %MON dynstat_theta_del2           =   1.0573855007745E-04
(PID.TID 0000.0001) %MON dynstat_salt_max             =   4.0711527021305E+01
(PID.TID 0000.0001) %MON dynstat_salt_min             =   1.8871360934321E+01
(PID.TID 0000.0001) %MON dynstat_salt_mean            =   3.4725627136879E+01
(PID.TID 0000.0001) %MON dynstat_salt_sd              =   3.7715490258570E-01
(PID.TID 0000.0001) %MON dynstat_salt_del2            =   2.9298174630142E-05
(PID.TID 0000.0001) %MON dynstat_sst_max              =   3.2616847852702E+01
(PID.TID 0000.0001) %MON dynstat_sst_min              =  -1.8984866153375E+00
(PID.TID 0000.0001) %MON dynstat_sst_mean             =   1.8479160521007E+01
(PID.TID 0000.0001) %MON dynstat_sst_sd               =   1.0106919992980E+01
(PID.TID 0000.0001) %MON dynstat_sst_del2             =   8.5905177993391E-04
(PID.TID 0000.0001) %MON dynstat_sss_max              =   3.9420086508460E+01
(PID.TID 0000.0001) %MON dynstat_sss_min              =   1.8871360934321E+01
(PID.TID 0000.0001) %MON dynstat_sss_mean             =   3.4684457453543E+01
(PID.TID 0000.0001) %MON dynstat_sss_sd               =   1.1250501287451E+00
(PID.TID 0000.0001) %MON dynstat_sss_del2             =   6.5504574713315E-04
(PID.TID 0000.0001) %MON forcing_qnet_max             =   1.0291636962891E+03
(PID.TID 0000.0001) %MON forcing_qnet_min             =  -7.9261919781048E+02
(PID.TID 0000.0001) %MON forcing_qnet_mean            =   2.8897200354584E+01
(PID.TID 0000.0001) %MON forcing_qnet_sd              =   1.9532132321787E+02
(PID.TID 0000.0001) %MON forcing_qnet_del2            =   3.8060592936001E-01
(PID.TID 0000.0001) %MON forcing_qsw_max              =   0.0000000000000E+00
(PID.TID 0000.0001) %MON forcing_qsw_min              =  -1.0357163953590E+02
(PID.TID 0000.0001) %MON forcing_qsw_mean             =  -1.5630521663986E+01
(PID.TID 0000.0001) %MON forcing_qsw_sd               =   2.7157314290252E+01
(PID.TID 0000.0001) %MON forcing_qsw_del2             =   2.2310115586233E-02
(PID.TID 0000.0001) %MON forcing_empmr_max            =   1.9452583510429E-03
(PID.TID 0000.0001) %MON forcing_empmr_min            =  -8.5104793310165E-02
(PID.TID 0000.0001) %MON forcing_empmr_mean           =  -4.6557266364629E-06
(PID.TID 0000.0001) %MON forcing_empmr_sd             =   3.7333026808068E-04
(PID.TID 0000.0001) %MON forcing_empmr_del2           =   4.6275334713223E-06
(PID.TID 0000.0001) %MON forcing_fu_max               =   1.0236350893974E+00
(PID.TID 0000.0001) %MON forcing_fu_min               =  -7.7267038822174E-01
(PID.TID 0000.0001) %MON forcing_fu_mean              =   9.4481888791275E-03
(PID.TID 0000.0001) %MON forcing_fu_sd                =   1.0971556489680E-01
(PID.TID 0000.0001) %MON forcing_fu_del2              =   1.5141587439853E-04
(PID.TID 0000.0001) %MON forcing_fv_max               =   8.2390025258064E-01
(PID.TID 0000.0001) %MON forcing_fv_min               =  -9.1277319192887E-01
(PID.TID 0000.0001) %MON forcing_fv_mean              =  -8.3588281377990E-03
(PID.TID 0000.0001) %MON forcing_fv_sd                =   1.0971798909898E-01
(PID.TID 0000.0001) %MON forcing_fv_del2              =   1.4758621795894E-04
(PID.TID 0000.0001) %MON trAdv_CFL_u_max              =   2.1602073001505E-02
(PID.TID 0000.0001) %MON trAdv_CFL_v_max              =   2.5428903273571E-02
(PID.TID 0000.0001) %MON trAdv_CFL_w_max              =   7.7433775462082E-02
(PID.TID 0000.0001) %MON advcfl_uvel_max              =   2.2439430022681E-02
(PID.TID 0000.0001) %MON advcfl_vvel_max              =   2.4088178008329E-02
(PID.TID 0000.0001) %MON advcfl_wvel_max              =   8.0702835566168E-02
(PID.TID 0000.0001) %MON advcfl_W_hf_max              =   8.5853741476650E-02
(PID.TID 0000.0001) %MON pe_b_mean                    =   6.4975125738471E-04
(PID.TID 0000.0001) %MON ke_max                       =   1.0875302058272E+00
(PID.TID 0000.0001) %MON ke_mean                      =   4.8176752105172E-04
(PID.TID 0000.0001) %MON ke_vol                       =   1.3349970614333E+18
(PID.TID 0000.0001) %MON vort_r_min                   =  -3.9392998927145E-05
(PID.TID 0000.0001) %MON vort_r_max                   =   3.9247877401258E-05
(PID.TID 0000.0001) %MON vort_a_mean                  =  -1.9727864647440E-05
(PID.TID 0000.0001) %MON vort_a_sd                    =   7.4543348413819E-05
(PID.TID 0000.0001) %MON vort_p_mean                  =  -2.1760543483416E-05
(PID.TID 0000.0001) %MON vort_p_sd                    =   9.7244916980290E-05
(PID.TID 0000.0001) %MON surfExpan_theta_mean         =  -2.7208482310630E-06
(PID.TID 0000.0001) %MON surfExpan_salt_mean          =  -2.6241899444654E-07
(PID.TID 0000.0001) // =======================================================
(PID.TID 0000.0001) // End MONITOR dynamic field statistics
(PID.TID 0000.0001) // =======================================================
(PID.TID 0000.0001) // =======================================================
(PID.TID 0000.0001) // Begin MONITOR SEAICE statistics
(PID.TID 0000.0001) // =======================================================
(PID.TID 0000.0001) %MON seaice_tsnumber              =                    64
(PID.TID 0000.0001) %MON seaice_time_sec              =   5.7600000000000E+04
(PID.TID 0000.0001) %MON seaice_uice_max              =   4.0000000000000E-01
(PID.TID 0000.0001) %MON seaice_uice_min              =  -4.0000000000000E-01
(PID.TID 0000.0001) %MON seaice_uice_mean             =  -8.3054598624025E-03
(PID.TID 0000.0001) %MON seaice_uice_sd               =   1.9802383574176E-01
(PID.TID 0000.0001) %MON seaice_uice_del2             =   2.2931571122150E-04
(PID.TID 0000.0001) %MON seaice_vice_max              =   4.0000000000000E-01
(PID.TID 0000.0001) %MON seaice_vice_min              =  -4.0000000000000E-01
(PID.TID 0000.0001) %MON seaice_vice_mean             =  -2.1960776359499E-02
(PID.TID 0000.0001) %MON seaice_vice_sd               =   2.1302038025672E-01
(PID.TID 0000.0001) %MON seaice_vice_del2             =   2.3932563818061E-04
(PID.TID 0000.0001) %MON seaice_area_max              =   1.0000000000000E+00
(PID.TID 0000.0001) %MON seaice_area_min              =   0.0000000000000E+00
(PID.TID 0000.0001) %MON seaice_area_mean             =   7.0751478152452E-02
(PID.TID 0000.0001) %MON seaice_area_sd               =   2.3712348485842E-01
(PID.TID 0000.0001) %MON seaice_area_del2             =   4.6742430637658E-04
(PID.TID 0000.0001) %MON seaice_heff_max              =   2.5256709418725E+01
(PID.TID 0000.0001) %MON seaice_heff_min              =   0.0000000000000E+00
(PID.TID 0000.0001) %MON seaice_heff_mean             =   2.1677912234198E-01
(PID.TID 0000.0001) %MON seaice_heff_sd               =   1.0700415915914E+00
(PID.TID 0000.0001) %MON seaice_heff_del2             =   3.9159625060068E-03
(PID.TID 0000.0001) %MON seaice_hsnow_max             =   8.3418072861678E+00
(PID.TID 0000.0001) %MON seaice_hsnow_min             =   0.0000000000000E+00
(PID.TID 0000.0001) %MON seaice_hsnow_mean            =   2.4612389660332E-02
(PID.TID 0000.0001) %MON seaice_hsnow_sd              =   1.5795605328892E-01
(PID.TID 0000.0001) %MON seaice_hsnow_del2            =   1.2552192355513E-03
(PID.TID 0000.0001) // =======================================================
(PID.TID 0000.0001) // End MONITOR SEAICE statistics
(PID.TID 0000.0001) // =======================================================
 Computing Diagnostic #     86  oceQnet      Counter:       4   Parms: SM      U1      
 Computing Diagnostic #     87  oceQsw       Counter:       4   Parms: SM      U1      
 Computing Diagnostic #     84  oceFWflx     Counter:       4   Parms: SM      U1      
 Computing Diagnostic #     85  oceSflux     Counter:       4   Parms: SM      U1      
 Computing Diagnostic #     80  oceTAUX      Counter:       4   Parms: UU      U1      
           Vector  Mate for  oceTAUX      Diagnostic #     81  oceTAUY  exists 
 Computing Diagnostic #     81  oceTAUY      Counter:       4   Parms: VV      U1      
           Vector  Mate for  oceTAUY      Diagnostic #     80  oceTAUX  exists 
 Computing Diagnostic #     26  THETA        Counter:       4   Parms: SMR     MR      
 Computing Diagnostic #     27  SALT         Counter:       4   Parms: SMR     MR      
 Computing Diagnostic #     30  UVEL         Counter:       4   Parms: UUR     MR      
           Vector  Mate for  UVEL         Diagnostic #     31  VVEL     exists 
 Computing Diagnostic #     31  VVEL         Counter:       4   Parms: VVR     MR      
           Vector  Mate for  VVEL         Diagnostic #     30  UVEL     exists 
 Computing Diagnostic #    214  SIarea       Counter:       4   Parms: SM      M1      
 Computing Diagnostic #    217  SIheff       Counter:       4   Parms: SM      M1      
 Computing Diagnostic #    219  SIhsnow      Counter:       4   Parms: SM      M1      
 Computing Diagnostic #     83  sIceLoad     Counter:       4   Parms: SM      U1      
 Computing Diagnostic #    223  SIuice       Counter:       4   Parms: UU      M1      
           Vector  Mate for  SIuice       Diagnostic #    224  SIvice   exists 
 Computing Diagnostic #    224  SIvice       Counter:       4   Parms: VV      M1      
           Vector  Mate for  SIvice       Diagnostic #    223  SIuice   exists 
 Computing Diagnostic #    225  SItaux       Counter:       4   Parms: UU      U1      
           Vector  Mate for  SItaux       Diagnostic #    226  SItauy   exists 
 Computing Diagnostic #    226  SItauy       Counter:       4   Parms: VV      U1      
           Vector  Mate for  SItauy       Diagnostic #    225  SItaux   exists 
 Computing Diagnostic #    285  SIareaN      Counter:       4   Parms: SM      MX      
 Computing Diagnostic #    284  SIheffN      Counter:       4   Parms: SM      MX      
 Computing Diagnostic #    286  SIhsnowN     Counter:       4   Parms: SM      MX      
 Compute Stats, Diag. #    214  SIarea    vol(   0 ): 3.580E+14  Parms: SM      M1      
 Compute Stats, Diag. #    217  SIheff    vol(   0 ): 3.580E+14  Parms: SM      M1      
 Compute Stats, Diag. #    219  SIhsnow   vol(   0 ): 3.580E+14  Parms: SM      M1      
 Compute Stats, Diag. #     83  sIceLoad  vol(   0 ): 3.580E+14  Parms: SM      U1      
 Compute Stats, Diag. #    223  SIuice    vol(   0 ): 3.513E+14  Parms: UU      M1      
 Compute Stats, Diag. #    224  SIvice    vol(   0 ): 3.508E+14  Parms: VV      M1      
 Compute Stats, Diag. #    225  SItaux    vol(   0 ): 3.513E+14  Parms: UU      U1      
 Compute Stats, Diag. #    226  SItauy    vol(   0 ): 3.508E+14  Parms: VV      U1      
 cg2d: Sum(rhs),rhsMax =   7.17494846876935E+01  2.98216280226898E-01
 Compute Stats, Diag. #    214  SIarea    vol(   0 ): 3.580E+14  Parms: SM      M1      
 Compute Stats, Diag. #    217  SIheff    vol(   0 ): 3.580E+14  Parms: SM      M1      
 Compute Stats, Diag. #    219  SIhsnow   vol(   0 ): 3.580E+14  Parms: SM      M1      
 Compute Stats, Diag. #     83  sIceLoad  vol(   0 ): 3.580E+14  Parms: SM      U1      
 Compute Stats, Diag. #    223  SIuice    vol(   0 ): 3.513E+14  Parms: UU      M1      
 Compute Stats, Diag. #    224  SIvice    vol(   0 ): 3.508E+14  Parms: VV      M1      
 Compute Stats, Diag. #    225  SItaux    vol(   0 ): 3.513E+14  Parms: UU      U1      
 Compute Stats, Diag. #    226  SItauy    vol(   0 ): 3.508E+14  Parms: VV      U1      
 cg2d: Sum(rhs),rhsMax =   7.16186173098380E+01  2.98482249034180E-01
 Compute Stats, Diag. #    214  SIarea    vol(   0 ): 3.580E+14  Parms: SM      M1      
 Compute Stats, Diag. #    217  SIheff    vol(   0 ): 3.580E+14  Parms: SM      M1      
 Compute Stats, Diag. #    219  SIhsnow   vol(   0 ): 3.580E+14  Parms: SM      M1      
 Compute Stats, Diag. #     83  sIceLoad  vol(   0 ): 3.580E+14  Parms: SM      U1      
 Compute Stats, Diag. #    223  SIuice    vol(   0 ): 3.513E+14  Parms: UU      M1      
 Compute Stats, Diag. #    224  SIvice    vol(   0 ): 3.508E+14  Parms: VV      M1      
 Compute Stats, Diag. #    225  SItaux    vol(   0 ): 3.513E+14  Parms: UU      U1      
 Compute Stats, Diag. #    226  SItauy    vol(   0 ): 3.508E+14  Parms: VV      U1      
 cg2d: Sum(rhs),rhsMax =   7.14738629773526E+01  2.98811852188251E-01
 Compute Stats, Diag. #    214  SIarea    vol(   0 ): 3.580E+14  Parms: SM      M1      
 Compute Stats, Diag. #    217  SIheff    vol(   0 ): 3.580E+14  Parms: SM      M1      
 Compute Stats, Diag. #    219  SIhsnow   vol(   0 ): 3.580E+14  Parms: SM      M1      
 Compute Stats, Diag. #     83  sIceLoad  vol(   0 ): 3.580E+14  Parms: SM      U1      
 Compute Stats, Diag. #    223  SIuice    vol(   0 ): 3.513E+14  Parms: UU      M1      
 Compute Stats, Diag. #    224  SIvice    vol(   0 ): 3.508E+14  Parms: VV      M1      
 Compute Stats, Diag. #    225  SItaux    vol(   0 ): 3.513E+14  Parms: UU      U1      
 Compute Stats, Diag. #    226  SItauy    vol(   0 ): 3.508E+14  Parms: VV      U1      
 cg2d: Sum(rhs),rhsMax =   7.13280736183814E+01  2.99192128989159E-01
 Computing Diagnostic #     86  oceQnet      Counter:       4   Parms: SM      U1      
 Computing Diagnostic #     87  oceQsw       Counter:       4   Parms: SM      U1      
 Computing Diagnostic #     84  oceFWflx     Counter:       4   Parms: SM      U1      
 Computing Diagnostic #     85  oceSflux     Counter:       4   Parms: SM      U1      
 Computing Diagnostic #     80  oceTAUX      Counter:       4   Parms: UU      U1      
           Vector  Mate for  oceTAUX      Diagnostic #     81  oceTAUY  exists 
 Computing Diagnostic #     81  oceTAUY      Counter:       4   Parms: VV      U1      
           Vector  Mate for  oceTAUY      Diagnostic #     80  oceTAUX  exists 
 Computing Diagnostic #     26  THETA        Counter:       4   Parms: SMR     MR      
 Computing Diagnostic #     27  SALT         Counter:       4   Parms: SMR     MR      
 Computing Diagnostic #     30  UVEL         Counter:       4   Parms: UUR     MR      
           Vector  Mate for  UVEL         Diagnostic #     31  VVEL     exists 
 Computing Diagnostic #     31  VVEL         Counter:       4   Parms: VVR     MR      
           Vector  Mate for  VVEL         Diagnostic #     30  UVEL     exists 
 Computing Diagnostic #    214  SIarea       Counter:       4   Parms: SM      M1      
 Computing Diagnostic #    217  SIheff       Counter:       4   Parms: SM      M1      
 Computing Diagnostic #    219  SIhsnow      Counter:       4   Parms: SM      M1      
 Computing Diagnostic #     83  sIceLoad     Counter:       4   Parms: SM      U1      
 Computing Diagnostic #    223  SIuice       Counter:       4   Parms: UU      M1      
           Vector  Mate for  SIuice       Diagnostic #    224  SIvice   exists 
 Computing Diagnostic #    224  SIvice       Counter:       4   Parms: VV      M1      
           Vector  Mate for  SIvice       Diagnostic #    223  SIuice   exists 
 Computing Diagnostic #    225  SItaux       Counter:       4   Parms: UU      U1      
           Vector  Mate for  SItaux       Diagnostic #    226  SItauy   exists 
 Computing Diagnostic #    226  SItauy       Counter:       4   Parms: VV      U1      
           Vector  Mate for  SItauy       Diagnostic #    225  SItaux   exists 
 Computing Diagnostic #    285  SIareaN      Counter:       4   Parms: SM      MX      
 Computing Diagnostic #    284  SIheffN      Counter:       4   Parms: SM      MX      
 Computing Diagnostic #    286  SIhsnowN     Counter:       4   Parms: SM      MX      
 Compute Stats, Diag. #    214  SIarea    vol(   0 ): 3.580E+14  Parms: SM      M1      
 Compute Stats, Diag. #    217  SIheff    vol(   0 ): 3.580E+14  Parms: SM      M1      
 Compute Stats, Diag. #    219  SIhsnow   vol(   0 ): 3.580E+14  Parms: SM      M1      
 Compute Stats, Diag. #     83  sIceLoad  vol(   0 ): 3.580E+14  Parms: SM      U1      
 Compute Stats, Diag. #    223  SIuice    vol(   0 ): 3.513E+14  Parms: UU      M1      
 Compute Stats, Diag. #    224  SIvice    vol(   0 ): 3.508E+14  Parms: VV      M1      
 Compute Stats, Diag. #    225  SItaux    vol(   0 ): 3.513E+14  Parms: UU      U1      
 Compute Stats, Diag. #    226  SItauy    vol(   0 ): 3.508E+14  Parms: VV      U1      
 cg2d: Sum(rhs),rhsMax =   7.11763636088843E+01  2.99607897082941E-01
 Compute Stats, Diag. #    214  SIarea    vol(   0 ): 3.580E+14  Parms: SM      M1      
 Compute Stats, Diag. #    217  SIheff    vol(   0 ): 3.580E+14  Parms: SM      M1      
 Compute Stats, Diag. #    219  SIhsnow   vol(   0 ): 3.580E+14  Parms: SM      M1      
 Compute Stats, Diag. #     83  sIceLoad  vol(   0 ): 3.580E+14  Parms: SM      U1      
 Compute Stats, Diag. #    223  SIuice    vol(   0 ): 3.513E+14  Parms: UU      M1      
 Compute Stats, Diag. #    224  SIvice    vol(   0 ): 3.508E+14  Parms: VV      M1      
 Compute Stats, Diag. #    225  SItaux    vol(   0 ): 3.513E+14  Parms: UU      U1      
 Compute Stats, Diag. #    226  SItauy    vol(   0 ): 3.508E+14  Parms: VV      U1      
 cg2d: Sum(rhs),rhsMax =   7.10108080247747E+01  3.00043535277769E-01
 Compute Stats, Diag. #    214  SIarea    vol(   0 ): 3.580E+14  Parms: SM      M1      
 Compute Stats, Diag. #    217  SIheff    vol(   0 ): 3.580E+14  Parms: SM      M1      
 Compute Stats, Diag. #    219  SIhsnow   vol(   0 ): 3.580E+14  Parms: SM      M1      
 Compute Stats, Diag. #     83  sIceLoad  vol(   0 ): 3.580E+14  Parms: SM      U1      
 Compute Stats, Diag. #    223  SIuice    vol(   0 ): 3.513E+14  Parms: UU      M1      
 Compute Stats, Diag. #    224  SIvice    vol(   0 ): 3.508E+14  Parms: VV      M1      
 Compute Stats, Diag. #    225  SItaux    vol(   0 ): 3.513E+14  Parms: UU      U1      
 Compute Stats, Diag. #    226  SItauy    vol(   0 ): 3.508E+14  Parms: VV      U1      
 cg2d: Sum(rhs),rhsMax =   7.08332912912656E+01  3.00483830281114E-01
 Compute Stats, Diag. #    214  SIarea    vol(   0 ): 3.580E+14  Parms: SM      M1      
 Compute Stats, Diag. #    217  SIheff    vol(   0 ): 3.580E+14  Parms: SM      M1      
 Compute Stats, Diag. #    219  SIhsnow   vol(   0 ): 3.580E+14  Parms: SM      M1      
 Compute Stats, Diag. #     83  sIceLoad  vol(   0 ): 3.580E+14  Parms: SM      U1      
 Compute Stats, Diag. #    223  SIuice    vol(   0 ): 3.513E+14  Parms: UU      M1      
 Compute Stats, Diag. #    224  SIvice    vol(   0 ): 3.508E+14  Parms: VV      M1      
 Compute Stats, Diag. #    225  SItaux    vol(   0 ): 3.513E+14  Parms: UU      U1      
 Compute Stats, Diag. #    226  SItauy    vol(   0 ): 3.508E+14  Parms: VV      U1      
 cg2d: Sum(rhs),rhsMax =   7.06563378003136E+01  3.00913664848774E-01
(PID.TID 0000.0001)      cg2d_init_res =   3.31594903912531E-01
(PID.TID 0000.0001)      cg2d_iters(min,last) =      -1      32
(PID.TID 0000.0001)      cg2d_last_res =   2.24779146709467E-05
(PID.TID 0000.0001) // =======================================================
(PID.TID 0000.0001) // Begin MONITOR dynamic field statistics
(PID.TID 0000.0001) // =======================================================
(PID.TID 0000.0001) %MON time_tsnumber                =                    72
(PID.TID 0000.0001) %MON time_secondsf                =   6.4800000000000E+04
(PID.TID 0000.0001) %MON dynstat_eta_max              =   1.0819056663798E+00
(PID.TID 0000.0001) %MON dynstat_eta_min              =  -2.9919808325676E+00
(PID.TID 0000.0001) %MON dynstat_eta_mean             =  -2.2350856259941E-03
(PID.TID 0000.0001) %MON dynstat_eta_sd               =   6.9719261723104E-01
(PID.TID 0000.0001) %MON dynstat_eta_del2             =   8.5289779243975E-05
(PID.TID 0000.0001) %MON dynstat_uvel_max             =   8.8632118120275E-01
(PID.TID 0000.0001) %MON dynstat_uvel_min             =  -1.3713094562869E+00
(PID.TID 0000.0001) %MON dynstat_uvel_mean            =   1.4138723319467E-03
(PID.TID 0000.0001) %MON dynstat_uvel_sd              =   2.1528236143429E-02
(PID.TID 0000.0001) %MON dynstat_uvel_del2            =   1.3324020848941E-05
(PID.TID 0000.0001) %MON dynstat_vvel_max             =   1.3378922818700E+00
(PID.TID 0000.0001) %MON dynstat_vvel_min             =  -9.1638155395881E-01
(PID.TID 0000.0001) %MON dynstat_vvel_mean            =   1.6716212683479E-03
(PID.TID 0000.0001) %MON dynstat_vvel_sd              =   2.2825285948320E-02
(PID.TID 0000.0001) %MON dynstat_vvel_del2            =   1.3484842743674E-05
(PID.TID 0000.0001) %MON dynstat_wvel_max             =   4.1527697193884E-03
(PID.TID 0000.0001) %MON dynstat_wvel_min             =  -2.4468707607579E-03
(PID.TID 0000.0001) %MON dynstat_wvel_mean            =   5.7602983540877E-08
(PID.TID 0000.0001) %MON dynstat_wvel_sd              =   3.2843631086207E-05
(PID.TID 0000.0001) %MON dynstat_wvel_del2            =   5.2944303365953E-08
(PID.TID 0000.0001) %MON dynstat_theta_max            =   3.2634060466740E+01
(PID.TID 0000.0001) %MON dynstat_theta_min            =  -2.0422829519380E+00
(PID.TID 0000.0001) %MON dynstat_theta_mean           =   3.5905039861119E+00
(PID.TID 0000.0001) %MON dynstat_theta_sd             =   4.4361791708898E+00
(PID.TID 0000.0001) %MON dynstat_theta_del2           =   1.0522278128795E-04
(PID.TID 0000.0001) %MON dynstat_salt_max             =   4.0711528123737E+01
(PID.TID 0000.0001) %MON dynstat_salt_min             =   1.8872951644093E+01
(PID.TID 0000.0001) %MON dynstat_salt_mean            =   3.4725621587058E+01
(PID.TID 0000.0001) %MON dynstat_salt_sd              =   3.7713258794006E-01
(PID.TID 0000.0001) %MON dynstat_salt_del2            =   2.9544453352846E-05
(PID.TID 0000.0001) %MON dynstat_sst_max              =   3.2594099295395E+01
(PID.TID 0000.0001) %MON dynstat_sst_min              =  -1.8907542960772E+00
(PID.TID 0000.0001) %MON dynstat_sst_mean             =   1.8480047952348E+01
(PID.TID 0000.0001) %MON dynstat_sst_sd               =   1.0108431953787E+01
(PID.TID 0000.0001) %MON dynstat_sst_del2             =   8.5630914984655E-04
(PID.TID 0000.0001) %MON dynstat_sss_max              =   3.9396595861025E+01
(PID.TID 0000.0001) %MON dynstat_sss_min              =   1.8872951644093E+01
(PID.TID 0000.0001) %MON dynstat_sss_mean             =   3.4685323473009E+01
(PID.TID 0000.0001) %MON dynstat_sss_sd               =   1.1261692144415E+00
(PID.TID 0000.0001) %MON dynstat_sss_del2             =   6.7888703917930E-04
(PID.TID 0000.0001) %MON forcing_qnet_max             =   9.9456960802124E+02
(PID.TID 0000.0001) %MON forcing_qnet_min             =  -1.0898256835938E+03
(PID.TID 0000.0001) %MON forcing_qnet_mean            =   1.4363376809227E+01
(PID.TID 0000.0001) %MON forcing_qnet_sd              =   2.0585857813955E+02
(PID.TID 0000.0001) %MON forcing_qnet_del2            =   3.6741712958918E-01
(PID.TID 0000.0001) %MON forcing_qsw_max              =   0.0000000000000E+00
(PID.TID 0000.0001) %MON forcing_qsw_min              =  -1.0951105626324E+02
(PID.TID 0000.0001) %MON forcing_qsw_mean             =  -1.7130160719524E+01
(PID.TID 0000.0001) %MON forcing_qsw_sd               =   2.9010860636783E+01
(PID.TID 0000.0001) %MON forcing_qsw_del2             =   2.2367740222167E-02
(PID.TID 0000.0001) %MON forcing_empmr_max            =   1.7803277587518E-03
(PID.TID 0000.0001) %MON forcing_empmr_min            =  -9.8629020154476E-02
(PID.TID 0000.0001) %MON forcing_empmr_mean           =  -6.3999273208022E-06
(PID.TID 0000.0001) %MON forcing_empmr_sd             =   4.0089459641240E-04
(PID.TID 0000.0001) %MON forcing_empmr_del2           =   4.2454494197161E-06
(PID.TID 0000.0001) %MON forcing_fu_max               =   9.8665669560432E-01
(PID.TID 0000.0001) %MON forcing_fu_min               =  -8.9764419198036E-01
(PID.TID 0000.0001) %MON forcing_fu_mean              =   8.9228684063311E-03
(PID.TID 0000.0001) %MON forcing_fu_sd                =   1.0849427422405E-01
(PID.TID 0000.0001) %MON forcing_fu_del2              =   1.5059493459209E-04
(PID.TID 0000.0001) %MON forcing_fv_max               =   9.0021795034409E-01
(PID.TID 0000.0001) %MON forcing_fv_min               =  -9.4324749708176E-01
(PID.TID 0000.0001) %MON forcing_fv_mean              =  -8.4017509803641E-03
(PID.TID 0000.0001) %MON forcing_fv_sd                =   1.0933812475589E-01
(PID.TID 0000.0001) %MON forcing_fv_del2              =   1.4795670278340E-04
(PID.TID 0000.0001) %MON trAdv_CFL_u_max              =   2.2176687282964E-02
(PID.TID 0000.0001) %MON trAdv_CFL_v_max              =   2.5094992758086E-02
(PID.TID 0000.0001) %MON trAdv_CFL_w_max              =   9.6604873503488E-02
(PID.TID 0000.0001) %MON advcfl_uvel_max              =   2.2688199022960E-02
(PID.TID 0000.0001) %MON advcfl_vvel_max              =   2.3748638628079E-02
(PID.TID 0000.0001) %MON advcfl_wvel_max              =   1.0056030066927E-01
(PID.TID 0000.0001) %MON advcfl_W_hf_max              =   1.0594829807851E-01
(PID.TID 0000.0001) %MON pe_b_mean                    =   6.3939400750911E-04
(PID.TID 0000.0001) %MON ke_max                       =   1.0715175847183E+00
(PID.TID 0000.0001) %MON ke_mean                      =   4.7701159565461E-04
(PID.TID 0000.0001) %MON ke_vol                       =   1.3349970747436E+18
(PID.TID 0000.0001) %MON vort_r_min                   =  -4.0184469959942E-05
(PID.TID 0000.0001) %MON vort_r_max                   =   3.9332471283700E-05
(PID.TID 0000.0001) %MON vort_a_mean                  =  -1.9727864647440E-05
(PID.TID 0000.0001) %MON vort_a_sd                    =   7.4543321988487E-05
(PID.TID 0000.0001) %MON vort_p_mean                  =  -2.1760542959878E-05
(PID.TID 0000.0001) %MON vort_p_sd                    =   9.7245102438110E-05
(PID.TID 0000.0001) %MON surfExpan_theta_mean         =  -2.3624040084948E-06
(PID.TID 0000.0001) %MON surfExpan_salt_mean          =  -1.6314925920529E-07
(PID.TID 0000.0001) // =======================================================
(PID.TID 0000.0001) // End MONITOR dynamic field statistics
(PID.TID 0000.0001) // =======================================================
(PID.TID 0000.0001) // =======================================================
(PID.TID 0000.0001) // Begin MONITOR SEAICE statistics
(PID.TID 0000.0001) // =======================================================
(PID.TID 0000.0001) %MON seaice_tsnumber              =                    72
(PID.TID 0000.0001) %MON seaice_time_sec              =   6.4800000000000E+04
(PID.TID 0000.0001) %MON seaice_uice_max              =   4.0000000000000E-01
(PID.TID 0000.0001) %MON seaice_uice_min              =  -4.0000000000000E-01
(PID.TID 0000.0001) %MON seaice_uice_mean             =  -8.3054598624025E-03
(PID.TID 0000.0001) %MON seaice_uice_sd               =   1.9802383574176E-01
(PID.TID 0000.0001) %MON seaice_uice_del2             =   2.2931571122150E-04
(PID.TID 0000.0001) %MON seaice_vice_max              =   4.0000000000000E-01
(PID.TID 0000.0001) %MON seaice_vice_min              =  -4.0000000000000E-01
(PID.TID 0000.0001) %MON seaice_vice_mean             =  -2.1960776359499E-02
(PID.TID 0000.0001) %MON seaice_vice_sd               =   2.1302038025672E-01
(PID.TID 0000.0001) %MON seaice_vice_del2             =   2.3932563818061E-04
(PID.TID 0000.0001) %MON seaice_area_max              =   1.0000000000000E+00
(PID.TID 0000.0001) %MON seaice_area_min              =   0.0000000000000E+00
(PID.TID 0000.0001) %MON seaice_area_mean             =   7.0556140723489E-02
(PID.TID 0000.0001) %MON seaice_area_sd               =   2.3699414412409E-01
(PID.TID 0000.0001) %MON seaice_area_del2             =   4.6601941592012E-04
(PID.TID 0000.0001) %MON seaice_heff_max              =   2.5252632649383E+01
(PID.TID 0000.0001) %MON seaice_heff_min              =   0.0000000000000E+00
(PID.TID 0000.0001) %MON seaice_heff_mean             =   2.1674824585499E-01
(PID.TID 0000.0001) %MON seaice_heff_sd               =   1.0703002418941E+00
(PID.TID 0000.0001) %MON seaice_heff_del2             =   3.9148717695208E-03
(PID.TID 0000.0001) %MON seaice_hsnow_max             =   8.3404659593070E+00
(PID.TID 0000.0001) %MON seaice_hsnow_min             =   0.0000000000000E+00
(PID.TID 0000.0001) %MON seaice_hsnow_mean            =   2.4601693244769E-02
(PID.TID 0000.0001) %MON seaice_hsnow_sd              =   1.5791776597896E-01
(PID.TID 0000.0001) %MON seaice_hsnow_del2            =   1.2549118886429E-03
(PID.TID 0000.0001) // =======================================================
(PID.TID 0000.0001) // End MONITOR SEAICE statistics
(PID.TID 0000.0001) // =======================================================
 Computing Diagnostic #     86  oceQnet      Counter:       4   Parms: SM      U1      
 Computing Diagnostic #     87  oceQsw       Counter:       4   Parms: SM      U1      
 Computing Diagnostic #     84  oceFWflx     Counter:       4   Parms: SM      U1      
 Computing Diagnostic #     85  oceSflux     Counter:       4   Parms: SM      U1      
 Computing Diagnostic #     80  oceTAUX      Counter:       4   Parms: UU      U1      
           Vector  Mate for  oceTAUX      Diagnostic #     81  oceTAUY  exists 
 Computing Diagnostic #     81  oceTAUY      Counter:       4   Parms: VV      U1      
           Vector  Mate for  oceTAUY      Diagnostic #     80  oceTAUX  exists 
 Computing Diagnostic #     26  THETA        Counter:       4   Parms: SMR     MR      
 Computing Diagnostic #     27  SALT         Counter:       4   Parms: SMR     MR      
 Computing Diagnostic #     30  UVEL         Counter:       4   Parms: UUR     MR      
           Vector  Mate for  UVEL         Diagnostic #     31  VVEL     exists 
 Computing Diagnostic #     31  VVEL         Counter:       4   Parms: VVR     MR      
           Vector  Mate for  VVEL         Diagnostic #     30  UVEL     exists 
 Computing Diagnostic #    214  SIarea       Counter:       4   Parms: SM      M1      
 Computing Diagnostic #    217  SIheff       Counter:       4   Parms: SM      M1      
 Computing Diagnostic #    219  SIhsnow      Counter:       4   Parms: SM      M1      
 Computing Diagnostic #     83  sIceLoad     Counter:       4   Parms: SM      U1      
 Computing Diagnostic #    223  SIuice       Counter:       4   Parms: UU      M1      
           Vector  Mate for  SIuice       Diagnostic #    224  SIvice   exists 
 Computing Diagnostic #    224  SIvice       Counter:       4   Parms: VV      M1      
           Vector  Mate for  SIvice       Diagnostic #    223  SIuice   exists 
 Computing Diagnostic #    225  SItaux       Counter:       4   Parms: UU      U1      
           Vector  Mate for  SItaux       Diagnostic #    226  SItauy   exists 
 Computing Diagnostic #    226  SItauy       Counter:       4   Parms: VV      U1      
           Vector  Mate for  SItauy       Diagnostic #    225  SItaux   exists 
 Computing Diagnostic #    285  SIareaN      Counter:       4   Parms: SM      MX      
 Computing Diagnostic #    284  SIheffN      Counter:       4   Parms: SM      MX      
 Computing Diagnostic #    286  SIhsnowN     Counter:       4   Parms: SM      MX      
 Compute Stats, Diag. #    214  SIarea    vol(   0 ): 3.580E+14  Parms: SM      M1      
 Compute Stats, Diag. #    217  SIheff    vol(   0 ): 3.580E+14  Parms: SM      M1      
 Compute Stats, Diag. #    219  SIhsnow   vol(   0 ): 3.580E+14  Parms: SM      M1      
 Compute Stats, Diag. #     83  sIceLoad  vol(   0 ): 3.580E+14  Parms: SM      U1      
 Compute Stats, Diag. #    223  SIuice    vol(   0 ): 3.513E+14  Parms: UU      M1      
 Compute Stats, Diag. #    224  SIvice    vol(   0 ): 3.508E+14  Parms: VV      M1      
 Compute Stats, Diag. #    225  SItaux    vol(   0 ): 3.513E+14  Parms: UU      U1      
 Compute Stats, Diag. #    226  SItauy    vol(   0 ): 3.508E+14  Parms: VV      U1      
 cg2d: Sum(rhs),rhsMax =   7.04696236351853E+01  3.01320309397748E-01
 Compute Stats, Diag. #    214  SIarea    vol(   0 ): 3.580E+14  Parms: SM      M1      
 Compute Stats, Diag. #    217  SIheff    vol(   0 ): 3.580E+14  Parms: SM      M1      
 Compute Stats, Diag. #    219  SIhsnow   vol(   0 ): 3.580E+14  Parms: SM      M1      
 Compute Stats, Diag. #     83  sIceLoad  vol(   0 ): 3.580E+14  Parms: SM      U1      
 Compute Stats, Diag. #    223  SIuice    vol(   0 ): 3.513E+14  Parms: UU      M1      
 Compute Stats, Diag. #    224  SIvice    vol(   0 ): 3.508E+14  Parms: VV      M1      
 Compute Stats, Diag. #    225  SItaux    vol(   0 ): 3.513E+14  Parms: UU      U1      
 Compute Stats, Diag. #    226  SItauy    vol(   0 ): 3.508E+14  Parms: VV      U1      
 cg2d: Sum(rhs),rhsMax =   7.02771210163217E+01  3.01692678092878E-01
 Compute Stats, Diag. #    214  SIarea    vol(   0 ): 3.580E+14  Parms: SM      M1      
 Compute Stats, Diag. #    217  SIheff    vol(   0 ): 3.580E+14  Parms: SM      M1      
 Compute Stats, Diag. #    219  SIhsnow   vol(   0 ): 3.580E+14  Parms: SM      M1      
 Compute Stats, Diag. #     83  sIceLoad  vol(   0 ): 3.580E+14  Parms: SM      U1      
 Compute Stats, Diag. #    223  SIuice    vol(   0 ): 3.513E+14  Parms: UU      M1      
 Compute Stats, Diag. #    224  SIvice    vol(   0 ): 3.508E+14  Parms: VV      M1      
 Compute Stats, Diag. #    225  SItaux    vol(   0 ): 3.513E+14  Parms: UU      U1      
 Compute Stats, Diag. #    226  SItauy    vol(   0 ): 3.508E+14  Parms: VV      U1      
 cg2d: Sum(rhs),rhsMax =   7.00774287394417E+01  3.02021707355550E-01
 Compute Stats, Diag. #    214  SIarea    vol(   0 ): 3.580E+14  Parms: SM      M1      
 Compute Stats, Diag. #    217  SIheff    vol(   0 ): 3.580E+14  Parms: SM      M1      
 Compute Stats, Diag. #    219  SIhsnow   vol(   0 ): 3.580E+14  Parms: SM      M1      
 Compute Stats, Diag. #     83  sIceLoad  vol(   0 ): 3.580E+14  Parms: SM      U1      
 Compute Stats, Diag. #    223  SIuice    vol(   0 ): 3.513E+14  Parms: UU      M1      
 Compute Stats, Diag. #    224  SIvice    vol(   0 ): 3.508E+14  Parms: VV      M1      
 Compute Stats, Diag. #    225  SItaux    vol(   0 ): 3.513E+14  Parms: UU      U1      
 Compute Stats, Diag. #    226  SItauy    vol(   0 ): 3.508E+14  Parms: VV      U1      
 cg2d: Sum(rhs),rhsMax =   6.98831546248050E+01  3.02300512654555E-01
 Computing Diagnostic #     86  oceQnet      Counter:       4   Parms: SM      U1      
 Computing Diagnostic #     87  oceQsw       Counter:       4   Parms: SM      U1      
 Computing Diagnostic #     84  oceFWflx     Counter:       4   Parms: SM      U1      
 Computing Diagnostic #     85  oceSflux     Counter:       4   Parms: SM      U1      
 Computing Diagnostic #     80  oceTAUX      Counter:       4   Parms: UU      U1      
           Vector  Mate for  oceTAUX      Diagnostic #     81  oceTAUY  exists 
 Computing Diagnostic #     81  oceTAUY      Counter:       4   Parms: VV      U1      
           Vector  Mate for  oceTAUY      Diagnostic #     80  oceTAUX  exists 
 Computing Diagnostic #     26  THETA        Counter:       4   Parms: SMR     MR      
 Computing Diagnostic #     27  SALT         Counter:       4   Parms: SMR     MR      
 Computing Diagnostic #     30  UVEL         Counter:       4   Parms: UUR     MR      
           Vector  Mate for  UVEL         Diagnostic #     31  VVEL     exists 
 Computing Diagnostic #     31  VVEL         Counter:       4   Parms: VVR     MR      
           Vector  Mate for  VVEL         Diagnostic #     30  UVEL     exists 
 Computing Diagnostic #    214  SIarea       Counter:       4   Parms: SM      M1      
 Computing Diagnostic #    217  SIheff       Counter:       4   Parms: SM      M1      
 Computing Diagnostic #    219  SIhsnow      Counter:       4   Parms: SM      M1      
 Computing Diagnostic #     83  sIceLoad     Counter:       4   Parms: SM      U1      
 Computing Diagnostic #    223  SIuice       Counter:       4   Parms: UU      M1      
           Vector  Mate for  SIuice       Diagnostic #    224  SIvice   exists 
 Computing Diagnostic #    224  SIvice       Counter:       4   Parms: VV      M1      
           Vector  Mate for  SIvice       Diagnostic #    223  SIuice   exists 
 Computing Diagnostic #    225  SItaux       Counter:       4   Parms: UU      U1      
           Vector  Mate for  SItaux       Diagnostic #    226  SItauy   exists 
 Computing Diagnostic #    226  SItauy       Counter:       4   Parms: VV      U1      
           Vector  Mate for  SItauy       Diagnostic #    225  SItaux   exists 
 Computing Diagnostic #    285  SIareaN      Counter:       4   Parms: SM      MX      
 Computing Diagnostic #    284  SIheffN      Counter:       4   Parms: SM      MX      
 Computing Diagnostic #    286  SIhsnowN     Counter:       4   Parms: SM      MX      
 Compute Stats, Diag. #    214  SIarea    vol(   0 ): 3.580E+14  Parms: SM      M1      
 Compute Stats, Diag. #    217  SIheff    vol(   0 ): 3.580E+14  Parms: SM      M1      
 Compute Stats, Diag. #    219  SIhsnow   vol(   0 ): 3.580E+14  Parms: SM      M1      
 Compute Stats, Diag. #     83  sIceLoad  vol(   0 ): 3.580E+14  Parms: SM      U1      
 Compute Stats, Diag. #    223  SIuice    vol(   0 ): 3.513E+14  Parms: UU      M1      
 Compute Stats, Diag. #    224  SIvice    vol(   0 ): 3.508E+14  Parms: VV      M1      
 Compute Stats, Diag. #    225  SItaux    vol(   0 ): 3.513E+14  Parms: UU      U1      
 Compute Stats, Diag. #    226  SItauy    vol(   0 ): 3.508E+14  Parms: VV      U1      
 cg2d: Sum(rhs),rhsMax =   6.96803661601063E+01  3.02524169179627E-01
 Compute Stats, Diag. #    214  SIarea    vol(   0 ): 3.580E+14  Parms: SM      M1      
 Compute Stats, Diag. #    217  SIheff    vol(   0 ): 3.580E+14  Parms: SM      M1      
 Compute Stats, Diag. #    219  SIhsnow   vol(   0 ): 3.580E+14  Parms: SM      M1      
 Compute Stats, Diag. #     83  sIceLoad  vol(   0 ): 3.580E+14  Parms: SM      U1      
 Compute Stats, Diag. #    223  SIuice    vol(   0 ): 3.513E+14  Parms: UU      M1      
 Compute Stats, Diag. #    224  SIvice    vol(   0 ): 3.508E+14  Parms: VV      M1      
 Compute Stats, Diag. #    225  SItaux    vol(   0 ): 3.513E+14  Parms: UU      U1      
 Compute Stats, Diag. #    226  SItauy    vol(   0 ): 3.508E+14  Parms: VV      U1      
 cg2d: Sum(rhs),rhsMax =   6.94749740501516E+01  3.02818480986918E-01
 Compute Stats, Diag. #    214  SIarea    vol(   0 ): 3.580E+14  Parms: SM      M1      
 Compute Stats, Diag. #    217  SIheff    vol(   0 ): 3.580E+14  Parms: SM      M1      
 Compute Stats, Diag. #    219  SIhsnow   vol(   0 ): 3.580E+14  Parms: SM      M1      
 Compute Stats, Diag. #     83  sIceLoad  vol(   0 ): 3.580E+14  Parms: SM      U1      
 Compute Stats, Diag. #    223  SIuice    vol(   0 ): 3.513E+14  Parms: UU      M1      
 Compute Stats, Diag. #    224  SIvice    vol(   0 ): 3.508E+14  Parms: VV      M1      
 Compute Stats, Diag. #    225  SItaux    vol(   0 ): 3.513E+14  Parms: UU      U1      
 Compute Stats, Diag. #    226  SItauy    vol(   0 ): 3.508E+14  Parms: VV      U1      
 cg2d: Sum(rhs),rhsMax =   6.92660202579679E+01  3.03133555474297E-01
 Compute Stats, Diag. #    214  SIarea    vol(   0 ): 3.580E+14  Parms: SM      M1      
 Compute Stats, Diag. #    217  SIheff    vol(   0 ): 3.580E+14  Parms: SM      M1      
 Compute Stats, Diag. #    219  SIhsnow   vol(   0 ): 3.580E+14  Parms: SM      M1      
 Compute Stats, Diag. #     83  sIceLoad  vol(   0 ): 3.580E+14  Parms: SM      U1      
 Compute Stats, Diag. #    223  SIuice    vol(   0 ): 3.513E+14  Parms: UU      M1      
 Compute Stats, Diag. #    224  SIvice    vol(   0 ): 3.508E+14  Parms: VV      M1      
 Compute Stats, Diag. #    225  SItaux    vol(   0 ): 3.513E+14  Parms: UU      U1      
 Compute Stats, Diag. #    226  SItauy    vol(   0 ): 3.508E+14  Parms: VV      U1      
 cg2d: Sum(rhs),rhsMax =   6.90517173657976E+01  3.03387090988431E-01
(PID.TID 0000.0001)      cg2d_init_res =   3.13571425763704E-01
(PID.TID 0000.0001)      cg2d_iters(min,last) =      -1      31
(PID.TID 0000.0001)      cg2d_last_res =   2.08919301960891E-05
(PID.TID 0000.0001) // =======================================================
(PID.TID 0000.0001) // Begin MONITOR dynamic field statistics
(PID.TID 0000.0001) // =======================================================
(PID.TID 0000.0001) %MON time_tsnumber                =                    80
(PID.TID 0000.0001) %MON time_secondsf                =   7.2000000000000E+04
(PID.TID 0000.0001) %MON dynstat_eta_max              =   1.0799411839876E+00
(PID.TID 0000.0001) %MON dynstat_eta_min              =  -2.9775683764595E+00
(PID.TID 0000.0001) %MON dynstat_eta_mean             =  -2.1843263568327E-03
(PID.TID 0000.0001) %MON dynstat_eta_sd               =   6.9244542790979E-01
(PID.TID 0000.0001) %MON dynstat_eta_del2             =   8.3207852958653E-05
(PID.TID 0000.0001) %MON dynstat_uvel_max             =   9.1396109550954E-01
(PID.TID 0000.0001) %MON dynstat_uvel_min             =  -1.3483473518877E+00
(PID.TID 0000.0001) %MON dynstat_uvel_mean            =   1.1596159348117E-03
(PID.TID 0000.0001) %MON dynstat_uvel_sd              =   2.1347693419079E-02
(PID.TID 0000.0001) %MON dynstat_uvel_del2            =   1.3284659017417E-05
(PID.TID 0000.0001) %MON dynstat_vvel_max             =   1.3281913411261E+00
(PID.TID 0000.0001) %MON dynstat_vvel_min             =  -9.1305504643809E-01
(PID.TID 0000.0001) %MON dynstat_vvel_mean            =   1.6803530909888E-03
(PID.TID 0000.0001) %MON dynstat_vvel_sd              =   2.2694736492876E-02
(PID.TID 0000.0001) %MON dynstat_vvel_del2            =   1.3253460620134E-05
(PID.TID 0000.0001) %MON dynstat_wvel_max             =   3.5709285900206E-03
(PID.TID 0000.0001) %MON dynstat_wvel_min             =  -2.2877902626641E-03
(PID.TID 0000.0001) %MON dynstat_wvel_mean            =   3.7926065994580E-08
(PID.TID 0000.0001) %MON dynstat_wvel_sd              =   3.2234756682663E-05
(PID.TID 0000.0001) %MON dynstat_wvel_del2            =   5.2003748411188E-08
(PID.TID 0000.0001) %MON dynstat_theta_max            =   3.2627536804255E+01
(PID.TID 0000.0001) %MON dynstat_theta_min            =  -2.0422742763570E+00
(PID.TID 0000.0001) %MON dynstat_theta_mean           =   3.5905002754065E+00
(PID.TID 0000.0001) %MON dynstat_theta_sd             =   4.4361632747329E+00
(PID.TID 0000.0001) %MON dynstat_theta_del2           =   1.0473840963423E-04
(PID.TID 0000.0001) %MON dynstat_salt_max             =   4.0711529069598E+01
(PID.TID 0000.0001) %MON dynstat_salt_min             =   1.8874722471649E+01
(PID.TID 0000.0001) %MON dynstat_salt_mean            =   3.4725616822243E+01
(PID.TID 0000.0001) %MON dynstat_salt_sd              =   3.7711489176148E-01
(PID.TID 0000.0001) %MON dynstat_salt_del2            =   2.9689579066811E-05
(PID.TID 0000.0001) %MON dynstat_sst_max              =   3.2570847288114E+01
(PID.TID 0000.0001) %MON dynstat_sst_min              =  -1.8830682372816E+00
(PID.TID 0000.0001) %MON dynstat_sst_mean             =   1.8482339581653E+01
(PID.TID 0000.0001) %MON dynstat_sst_sd               =   1.0110983971467E+01
(PID.TID 0000.0001) %MON dynstat_sst_del2             =   8.5407496791935E-04
(PID.TID 0000.0001) %MON dynstat_sss_max              =   3.9374215841908E+01
(PID.TID 0000.0001) %MON dynstat_sss_min              =   1.8874722471649E+01
(PID.TID 0000.0001) %MON dynstat_sss_mean             =   3.4686156532870E+01
(PID.TID 0000.0001) %MON dynstat_sss_sd               =   1.1273335136993E+00
(PID.TID 0000.0001) %MON dynstat_sss_del2             =   6.9573833750643E-04
(PID.TID 0000.0001) %MON forcing_qnet_max             =   1.9045060255560E+03
(PID.TID 0000.0001) %MON forcing_qnet_min             =  -8.1947968284236E+02
(PID.TID 0000.0001) %MON forcing_qnet_mean            =   4.3881522807991E+00
(PID.TID 0000.0001) %MON forcing_qnet_sd              =   1.9479086990464E+02
(PID.TID 0000.0001) %MON forcing_qnet_del2            =   3.7552027547595E-01
(PID.TID 0000.0001) %MON forcing_qsw_max              =   0.0000000000000E+00
(PID.TID 0000.0001) %MON forcing_qsw_min              =  -1.0916685400826E+02
(PID.TID 0000.0001) %MON forcing_qsw_mean             =  -1.8649156777358E+01
(PID.TID 0000.0001) %MON forcing_qsw_sd               =   2.8346153375969E+01
(PID.TID 0000.0001) %MON forcing_qsw_del2             =   2.1654364423072E-02
(PID.TID 0000.0001) %MON forcing_empmr_max            =   1.6315375687554E-03
(PID.TID 0000.0001) %MON forcing_empmr_min            =  -1.1360996216536E-01
(PID.TID 0000.0001) %MON forcing_empmr_mean           =  -7.7507537554045E-06
(PID.TID 0000.0001) %MON forcing_empmr_sd             =   4.4755495575232E-04
(PID.TID 0000.0001) %MON forcing_empmr_del2           =   4.6527675058385E-06
(PID.TID 0000.0001) %MON forcing_fu_max               =   9.1285115480423E-01
(PID.TID 0000.0001) %MON forcing_fu_min               =  -1.0315235853195E+00
(PID.TID 0000.0001) %MON forcing_fu_mean              =   8.6174391339709E-03
(PID.TID 0000.0001) %MON forcing_fu_sd                =   1.0710790355277E-01
(PID.TID 0000.0001) %MON forcing_fu_del2              =   1.5042843218537E-04
(PID.TID 0000.0001) %MON forcing_fv_max               =   9.6466538310051E-01
(PID.TID 0000.0001) %MON forcing_fv_min               =  -9.4662740826607E-01
(PID.TID 0000.0001) %MON forcing_fv_mean              =  -8.8920148157171E-03
(PID.TID 0000.0001) %MON forcing_fv_sd                =   1.0924339115844E-01
(PID.TID 0000.0001) %MON forcing_fv_del2              =   1.4887900701460E-04
(PID.TID 0000.0001) %MON trAdv_CFL_u_max              =   2.2893828093705E-02
(PID.TID 0000.0001) %MON trAdv_CFL_v_max              =   2.4651899550313E-02
(PID.TID 0000.0001) %MON trAdv_CFL_w_max              =   1.1165998136342E-01
(PID.TID 0000.0001) %MON advcfl_uvel_max              =   2.2154678239381E-02
(PID.TID 0000.0001) %MON advcfl_vvel_max              =   2.3576597215441E-02
(PID.TID 0000.0001) %MON advcfl_wvel_max              =   1.1625520646518E-01
(PID.TID 0000.0001) %MON advcfl_W_hf_max              =   1.2255591960266E-01
(PID.TID 0000.0001) %MON pe_b_mean                    =   6.3071616079814E-04
(PID.TID 0000.0001) %MON ke_max                       =   1.0513468830629E+00
(PID.TID 0000.0001) %MON ke_mean                      =   4.7011232106877E-04
(PID.TID 0000.0001) %MON ke_vol                       =   1.3349970924932E+18
(PID.TID 0000.0001) %MON vort_r_min                   =  -3.9526189238152E-05
(PID.TID 0000.0001) %MON vort_r_max                   =   3.9494965490096E-05
(PID.TID 0000.0001) %MON vort_a_mean                  =  -1.9727864647440E-05
(PID.TID 0000.0001) %MON vort_a_sd                    =   7.4543280537107E-05
(PID.TID 0000.0001) %MON vort_p_mean                  =  -2.1760542290259E-05
(PID.TID 0000.0001) %MON vort_p_sd                    =   9.7245141147334E-05
(PID.TID 0000.0001) %MON surfExpan_theta_mean         =  -2.0482905224128E-06
(PID.TID 0000.0001) %MON surfExpan_salt_mean          =  -9.0351976103637E-08
(PID.TID 0000.0001) // =======================================================
(PID.TID 0000.0001) // End MONITOR dynamic field statistics
(PID.TID 0000.0001) // =======================================================
(PID.TID 0000.0001) // =======================================================
(PID.TID 0000.0001) // Begin MONITOR SEAICE statistics
(PID.TID 0000.0001) // =======================================================
(PID.TID 0000.0001) %MON seaice_tsnumber              =                    80
(PID.TID 0000.0001) %MON seaice_time_sec              =   7.2000000000000E+04
(PID.TID 0000.0001) %MON seaice_uice_max              =   4.0000000000000E-01
(PID.TID 0000.0001) %MON seaice_uice_min              =  -4.0000000000000E-01
(PID.TID 0000.0001) %MON seaice_uice_mean             =  -8.3054598624025E-03
(PID.TID 0000.0001) %MON seaice_uice_sd               =   1.9802383574176E-01
(PID.TID 0000.0001) %MON seaice_uice_del2             =   2.2931571122150E-04
(PID.TID 0000.0001) %MON seaice_vice_max              =   4.0000000000000E-01
(PID.TID 0000.0001) %MON seaice_vice_min              =  -4.0000000000000E-01
(PID.TID 0000.0001) %MON seaice_vice_mean             =  -2.1960776359499E-02
(PID.TID 0000.0001) %MON seaice_vice_sd               =   2.1302038025672E-01
(PID.TID 0000.0001) %MON seaice_vice_del2             =   2.3932563818061E-04
(PID.TID 0000.0001) %MON seaice_area_max              =   1.0000000000000E+00
(PID.TID 0000.0001) %MON seaice_area_min              =   0.0000000000000E+00
(PID.TID 0000.0001) %MON seaice_area_mean             =   7.0382409144592E-02
(PID.TID 0000.0001) %MON seaice_area_sd               =   2.3686374806453E-01
(PID.TID 0000.0001) %MON seaice_area_del2             =   4.6474336399731E-04
(PID.TID 0000.0001) %MON seaice_heff_max              =   2.5248745113844E+01
(PID.TID 0000.0001) %MON seaice_heff_min              =   0.0000000000000E+00
(PID.TID 0000.0001) %MON seaice_heff_mean             =   2.1670682090614E-01
(PID.TID 0000.0001) %MON seaice_heff_sd               =   1.0704781230621E+00
(PID.TID 0000.0001) %MON seaice_heff_del2             =   3.9137994345100E-03
(PID.TID 0000.0001) %MON seaice_hsnow_max             =   8.3391876402893E+00
(PID.TID 0000.0001) %MON seaice_hsnow_min             =   0.0000000000000E+00
(PID.TID 0000.0001) %MON seaice_hsnow_mean            =   2.4588002115484E-02
(PID.TID 0000.0001) %MON seaice_hsnow_sd              =   1.5787809615125E-01
(PID.TID 0000.0001) %MON seaice_hsnow_del2            =   1.2546217066086E-03
(PID.TID 0000.0001) // =======================================================
(PID.TID 0000.0001) // End MONITOR SEAICE statistics
(PID.TID 0000.0001) // =======================================================
 Computing Diagnostic #     86  oceQnet      Counter:       4   Parms: SM      U1      
 Computing Diagnostic #     87  oceQsw       Counter:       4   Parms: SM      U1      
 Computing Diagnostic #     84  oceFWflx     Counter:       4   Parms: SM      U1      
 Computing Diagnostic #     85  oceSflux     Counter:       4   Parms: SM      U1      
 Computing Diagnostic #     80  oceTAUX      Counter:       4   Parms: UU      U1      
           Vector  Mate for  oceTAUX      Diagnostic #     81  oceTAUY  exists 
 Computing Diagnostic #     81  oceTAUY      Counter:       4   Parms: VV      U1      
           Vector  Mate for  oceTAUY      Diagnostic #     80  oceTAUX  exists 
 Computing Diagnostic #     26  THETA        Counter:       4   Parms: SMR     MR      
 Computing Diagnostic #     27  SALT         Counter:       4   Parms: SMR     MR      
 Computing Diagnostic #     30  UVEL         Counter:       4   Parms: UUR     MR      
           Vector  Mate for  UVEL         Diagnostic #     31  VVEL     exists 
 Computing Diagnostic #     31  VVEL         Counter:       4   Parms: VVR     MR      
           Vector  Mate for  VVEL         Diagnostic #     30  UVEL     exists 
 Computing Diagnostic #    214  SIarea       Counter:       4   Parms: SM      M1      
 Computing Diagnostic #    217  SIheff       Counter:       4   Parms: SM      M1      
 Computing Diagnostic #    219  SIhsnow      Counter:       4   Parms: SM      M1      
 Computing Diagnostic #     83  sIceLoad     Counter:       4   Parms: SM      U1      
 Computing Diagnostic #    223  SIuice       Counter:       4   Parms: UU      M1      
           Vector  Mate for  SIuice       Diagnostic #    224  SIvice   exists 
 Computing Diagnostic #    224  SIvice       Counter:       4   Parms: VV      M1      
           Vector  Mate for  SIvice       Diagnostic #    223  SIuice   exists 
 Computing Diagnostic #    225  SItaux       Counter:       4   Parms: UU      U1      
           Vector  Mate for  SItaux       Diagnostic #    226  SItauy   exists 
 Computing Diagnostic #    226  SItauy       Counter:       4   Parms: VV      U1      
           Vector  Mate for  SItauy       Diagnostic #    225  SItaux   exists 
 Computing Diagnostic #    285  SIareaN      Counter:       4   Parms: SM      MX      
 Computing Diagnostic #    284  SIheffN      Counter:       4   Parms: SM      MX      
 Computing Diagnostic #    286  SIhsnowN     Counter:       4   Parms: SM      MX      
 Compute Stats, Diag. #    214  SIarea    vol(   0 ): 3.580E+14  Parms: SM      M1      
 Compute Stats, Diag. #    217  SIheff    vol(   0 ): 3.580E+14  Parms: SM      M1      
 Compute Stats, Diag. #    219  SIhsnow   vol(   0 ): 3.580E+14  Parms: SM      M1      
 Compute Stats, Diag. #     83  sIceLoad  vol(   0 ): 3.580E+14  Parms: SM      U1      
 Compute Stats, Diag. #    223  SIuice    vol(   0 ): 3.513E+14  Parms: UU      M1      
 Compute Stats, Diag. #    224  SIvice    vol(   0 ): 3.508E+14  Parms: VV      M1      
 Compute Stats, Diag. #    225  SItaux    vol(   0 ): 3.513E+14  Parms: UU      U1      
 Compute Stats, Diag. #    226  SItauy    vol(   0 ): 3.508E+14  Parms: VV      U1      
 cg2d: Sum(rhs),rhsMax =   6.88419068023135E+01  3.03577328329673E-01
 Compute Stats, Diag. #    214  SIarea    vol(   0 ): 3.580E+14  Parms: SM      M1      
 Compute Stats, Diag. #    217  SIheff    vol(   0 ): 3.580E+14  Parms: SM      M1      
 Compute Stats, Diag. #    219  SIhsnow   vol(   0 ): 3.580E+14  Parms: SM      M1      
 Compute Stats, Diag. #     83  sIceLoad  vol(   0 ): 3.580E+14  Parms: SM      U1      
 Compute Stats, Diag. #    223  SIuice    vol(   0 ): 3.513E+14  Parms: UU      M1      
 Compute Stats, Diag. #    224  SIvice    vol(   0 ): 3.508E+14  Parms: VV      M1      
 Compute Stats, Diag. #    225  SItaux    vol(   0 ): 3.513E+14  Parms: UU      U1      
 Compute Stats, Diag. #    226  SItauy    vol(   0 ): 3.508E+14  Parms: VV      U1      
 cg2d: Sum(rhs),rhsMax =   6.86379994687584E+01  3.03701126175819E-01
 Compute Stats, Diag. #    214  SIarea    vol(   0 ): 3.580E+14  Parms: SM      M1      
 Compute Stats, Diag. #    217  SIheff    vol(   0 ): 3.580E+14  Parms: SM      M1      
 Compute Stats, Diag. #    219  SIhsnow   vol(   0 ): 3.580E+14  Parms: SM      M1      
 Compute Stats, Diag. #     83  sIceLoad  vol(   0 ): 3.580E+14  Parms: SM      U1      
 Compute Stats, Diag. #    223  SIuice    vol(   0 ): 3.513E+14  Parms: UU      M1      
 Compute Stats, Diag. #    224  SIvice    vol(   0 ): 3.508E+14  Parms: VV      M1      
 Compute Stats, Diag. #    225  SItaux    vol(   0 ): 3.513E+14  Parms: UU      U1      
 Compute Stats, Diag. #    226  SItauy    vol(   0 ): 3.508E+14  Parms: VV      U1      
 cg2d: Sum(rhs),rhsMax =   6.84330794555019E+01  3.03756812354178E-01
 Compute Stats, Diag. #    214  SIarea    vol(   0 ): 3.580E+14  Parms: SM      M1      
 Compute Stats, Diag. #    217  SIheff    vol(   0 ): 3.580E+14  Parms: SM      M1      
 Compute Stats, Diag. #    219  SIhsnow   vol(   0 ): 3.580E+14  Parms: SM      M1      
 Compute Stats, Diag. #     83  sIceLoad  vol(   0 ): 3.580E+14  Parms: SM      U1      
 Compute Stats, Diag. #    223  SIuice    vol(   0 ): 3.513E+14  Parms: UU      M1      
 Compute Stats, Diag. #    224  SIvice    vol(   0 ): 3.508E+14  Parms: VV      M1      
 Compute Stats, Diag. #    225  SItaux    vol(   0 ): 3.513E+14  Parms: UU      U1      
 Compute Stats, Diag. #    226  SItauy    vol(   0 ): 3.508E+14  Parms: VV      U1      
 cg2d: Sum(rhs),rhsMax =   6.82303936527892E+01  3.03743512434295E-01
 Computing Diagnostic #     86  oceQnet      Counter:       4   Parms: SM      U1      
 Computing Diagnostic #     87  oceQsw       Counter:       4   Parms: SM      U1      
 Computing Diagnostic #     84  oceFWflx     Counter:       4   Parms: SM      U1      
 Computing Diagnostic #     85  oceSflux     Counter:       4   Parms: SM      U1      
 Computing Diagnostic #     80  oceTAUX      Counter:       4   Parms: UU      U1      
           Vector  Mate for  oceTAUX      Diagnostic #     81  oceTAUY  exists 
 Computing Diagnostic #     81  oceTAUY      Counter:       4   Parms: VV      U1      
           Vector  Mate for  oceTAUY      Diagnostic #     80  oceTAUX  exists 
 Computing Diagnostic #     26  THETA        Counter:       4   Parms: SMR     MR      
 Computing Diagnostic #     27  SALT         Counter:       4   Parms: SMR     MR      
 Computing Diagnostic #     30  UVEL         Counter:       4   Parms: UUR     MR      
           Vector  Mate for  UVEL         Diagnostic #     31  VVEL     exists 
 Computing Diagnostic #     31  VVEL         Counter:       4   Parms: VVR     MR      
           Vector  Mate for  VVEL         Diagnostic #     30  UVEL     exists 
 Computing Diagnostic #    214  SIarea       Counter:       4   Parms: SM      M1      
 Computing Diagnostic #    217  SIheff       Counter:       4   Parms: SM      M1      
 Computing Diagnostic #    219  SIhsnow      Counter:       4   Parms: SM      M1      
 Computing Diagnostic #     83  sIceLoad     Counter:       4   Parms: SM      U1      
 Computing Diagnostic #    223  SIuice       Counter:       4   Parms: UU      M1      
           Vector  Mate for  SIuice       Diagnostic #    224  SIvice   exists 
 Computing Diagnostic #    224  SIvice       Counter:       4   Parms: VV      M1      
           Vector  Mate for  SIvice       Diagnostic #    223  SIuice   exists 
 Computing Diagnostic #    225  SItaux       Counter:       4   Parms: UU      U1      
           Vector  Mate for  SItaux       Diagnostic #    226  SItauy   exists 
 Computing Diagnostic #    226  SItauy       Counter:       4   Parms: VV      U1      
           Vector  Mate for  SItauy       Diagnostic #    225  SItaux   exists 
 Computing Diagnostic #    285  SIareaN      Counter:       4   Parms: SM      MX      
 Computing Diagnostic #    284  SIheffN      Counter:       4   Parms: SM      MX      
 Computing Diagnostic #    286  SIhsnowN     Counter:       4   Parms: SM      MX      
 Compute Stats, Diag. #    214  SIarea    vol(   0 ): 3.580E+14  Parms: SM      M1      
 Compute Stats, Diag. #    217  SIheff    vol(   0 ): 3.580E+14  Parms: SM      M1      
 Compute Stats, Diag. #    219  SIhsnow   vol(   0 ): 3.580E+14  Parms: SM      M1      
 Compute Stats, Diag. #     83  sIceLoad  vol(   0 ): 3.580E+14  Parms: SM      U1      
 Compute Stats, Diag. #    223  SIuice    vol(   0 ): 3.513E+14  Parms: UU      M1      
 Compute Stats, Diag. #    224  SIvice    vol(   0 ): 3.508E+14  Parms: VV      M1      
 Compute Stats, Diag. #    225  SItaux    vol(   0 ): 3.513E+14  Parms: UU      U1      
 Compute Stats, Diag. #    226  SItauy    vol(   0 ): 3.508E+14  Parms: VV      U1      
 cg2d: Sum(rhs),rhsMax =   6.80175524243833E+01  3.03660746744640E-01
 Compute Stats, Diag. #    214  SIarea    vol(   0 ): 3.580E+14  Parms: SM      M1      
 Compute Stats, Diag. #    217  SIheff    vol(   0 ): 3.580E+14  Parms: SM      M1      
 Compute Stats, Diag. #    219  SIhsnow   vol(   0 ): 3.580E+14  Parms: SM      M1      
 Compute Stats, Diag. #     83  sIceLoad  vol(   0 ): 3.580E+14  Parms: SM      U1      
 Compute Stats, Diag. #    223  SIuice    vol(   0 ): 3.513E+14  Parms: UU      M1      
 Compute Stats, Diag. #    224  SIvice    vol(   0 ): 3.508E+14  Parms: VV      M1      
 Compute Stats, Diag. #    225  SItaux    vol(   0 ): 3.513E+14  Parms: UU      U1      
 Compute Stats, Diag. #    226  SItauy    vol(   0 ): 3.508E+14  Parms: VV      U1      
 cg2d: Sum(rhs),rhsMax =   6.78084087501196E+01  3.03507708420769E-01
 Compute Stats, Diag. #    214  SIarea    vol(   0 ): 3.580E+14  Parms: SM      M1      
 Compute Stats, Diag. #    217  SIheff    vol(   0 ): 3.580E+14  Parms: SM      M1      
 Compute Stats, Diag. #    219  SIhsnow   vol(   0 ): 3.580E+14  Parms: SM      M1      
 Compute Stats, Diag. #     83  sIceLoad  vol(   0 ): 3.580E+14  Parms: SM      U1      
 Compute Stats, Diag. #    223  SIuice    vol(   0 ): 3.513E+14  Parms: UU      M1      
 Compute Stats, Diag. #    224  SIvice    vol(   0 ): 3.508E+14  Parms: VV      M1      
 Compute Stats, Diag. #    225  SItaux    vol(   0 ): 3.513E+14  Parms: UU      U1      
 Compute Stats, Diag. #    226  SItauy    vol(   0 ): 3.508E+14  Parms: VV      U1      
 cg2d: Sum(rhs),rhsMax =   6.75938354787419E+01  3.03286825561091E-01
 Compute Stats, Diag. #    214  SIarea    vol(   0 ): 3.580E+14  Parms: SM      M1      
 Compute Stats, Diag. #    217  SIheff    vol(   0 ): 3.580E+14  Parms: SM      M1      
 Compute Stats, Diag. #    219  SIhsnow   vol(   0 ): 3.580E+14  Parms: SM      M1      
 Compute Stats, Diag. #     83  sIceLoad  vol(   0 ): 3.580E+14  Parms: SM      U1      
 Compute Stats, Diag. #    223  SIuice    vol(   0 ): 3.513E+14  Parms: UU      M1      
 Compute Stats, Diag. #    224  SIvice    vol(   0 ): 3.508E+14  Parms: VV      M1      
 Compute Stats, Diag. #    225  SItaux    vol(   0 ): 3.513E+14  Parms: UU      U1      
 Compute Stats, Diag. #    226  SItauy    vol(   0 ): 3.508E+14  Parms: VV      U1      
 cg2d: Sum(rhs),rhsMax =   6.73777949628639E+01  3.02996339472016E-01
(PID.TID 0000.0001)      cg2d_init_res =   2.88576912179340E-01
(PID.TID 0000.0001)      cg2d_iters(min,last) =      -1      31
(PID.TID 0000.0001)      cg2d_last_res =   2.55442540701694E-05
(PID.TID 0000.0001) // =======================================================
(PID.TID 0000.0001) // Begin MONITOR dynamic field statistics
(PID.TID 0000.0001) // =======================================================
(PID.TID 0000.0001) %MON time_tsnumber                =                    88
(PID.TID 0000.0001) %MON time_secondsf                =   7.9200000000000E+04
(PID.TID 0000.0001) %MON dynstat_eta_max              =   1.0841802288277E+00
(PID.TID 0000.0001) %MON dynstat_eta_min              =  -2.8702902210509E+00
(PID.TID 0000.0001) %MON dynstat_eta_mean             =  -2.1313748450744E-03
(PID.TID 0000.0001) %MON dynstat_eta_sd               =   6.8863893811999E-01
(PID.TID 0000.0001) %MON dynstat_eta_del2             =   8.2217603072237E-05
(PID.TID 0000.0001) %MON dynstat_uvel_max             =   9.6223715031818E-01
(PID.TID 0000.0001) %MON dynstat_uvel_min             =  -1.2996873311872E+00
(PID.TID 0000.0001) %MON dynstat_uvel_mean            =   9.5692655088171E-04
(PID.TID 0000.0001) %MON dynstat_uvel_sd              =   2.1154664711024E-02
(PID.TID 0000.0001) %MON dynstat_uvel_del2            =   1.3221381456060E-05
(PID.TID 0000.0001) %MON dynstat_vvel_max             =   1.3420587936173E+00
(PID.TID 0000.0001) %MON dynstat_vvel_min             =  -9.0897668396923E-01
(PID.TID 0000.0001) %MON dynstat_vvel_mean            =   1.6255334110304E-03
(PID.TID 0000.0001) %MON dynstat_vvel_sd              =   2.2499661138916E-02
(PID.TID 0000.0001) %MON dynstat_vvel_del2            =   1.3010999203392E-05
(PID.TID 0000.0001) %MON dynstat_wvel_max             =   3.8816286452825E-03
(PID.TID 0000.0001) %MON dynstat_wvel_min             =  -2.0596095540442E-03
(PID.TID 0000.0001) %MON dynstat_wvel_mean            =   3.4116317910728E-08
(PID.TID 0000.0001) %MON dynstat_wvel_sd              =   3.1659123664368E-05
(PID.TID 0000.0001) %MON dynstat_wvel_del2            =   5.0872015609806E-08
(PID.TID 0000.0001) %MON dynstat_theta_max            =   3.2618658872251E+01
(PID.TID 0000.0001) %MON dynstat_theta_min            =  -2.0422702443885E+00
(PID.TID 0000.0001) %MON dynstat_theta_mean           =   3.5905004578038E+00
(PID.TID 0000.0001) %MON dynstat_theta_sd             =   4.4361665502333E+00
(PID.TID 0000.0001) %MON dynstat_theta_del2           =   1.0427499719151E-04
(PID.TID 0000.0001) %MON dynstat_salt_max             =   4.0711529990621E+01
(PID.TID 0000.0001) %MON dynstat_salt_min             =   1.7844793699114E+01
(PID.TID 0000.0001) %MON dynstat_salt_mean            =   3.4725612648614E+01
(PID.TID 0000.0001) %MON dynstat_salt_sd              =   3.7710058753042E-01
(PID.TID 0000.0001) %MON dynstat_salt_del2            =   2.9871615608802E-05
(PID.TID 0000.0001) %MON dynstat_sst_max              =   3.2547224012532E+01
(PID.TID 0000.0001) %MON dynstat_sst_min              =  -1.8788523531339E+00
(PID.TID 0000.0001) %MON dynstat_sst_mean             =   1.8484502422263E+01
(PID.TID 0000.0001) %MON dynstat_sst_sd               =   1.0113838923522E+01
(PID.TID 0000.0001) %MON dynstat_sst_del2             =   8.5146084179528E-04
(PID.TID 0000.0001) %MON dynstat_sss_max              =   3.9353028620903E+01
(PID.TID 0000.0001) %MON dynstat_sss_min              =   1.7844793699114E+01
(PID.TID 0000.0001) %MON dynstat_sss_mean             =   3.4686873534285E+01
(PID.TID 0000.0001) %MON dynstat_sss_sd               =   1.1284535659941E+00
(PID.TID 0000.0001) %MON dynstat_sss_del2             =   7.1492196369962E-04
(PID.TID 0000.0001) %MON forcing_qnet_max             =   1.2767343750000E+03
(PID.TID 0000.0001) %MON forcing_qnet_min             =  -8.5238732767823E+02
(PID.TID 0000.0001) %MON forcing_qnet_mean            =  -3.6230827114440E+00
(PID.TID 0000.0001) %MON forcing_qnet_sd              =   1.8563559533075E+02
(PID.TID 0000.0001) %MON forcing_qnet_del2            =   3.7849057574054E-01
(PID.TID 0000.0001) %MON forcing_qsw_max              =   0.0000000000000E+00
(PID.TID 0000.0001) %MON forcing_qsw_min              =  -1.0815544113820E+02
(PID.TID 0000.0001) %MON forcing_qsw_mean             =  -1.9976539264342E+01
(PID.TID 0000.0001) %MON forcing_qsw_sd               =   2.8903797478300E+01
(PID.TID 0000.0001) %MON forcing_qsw_del2             =   2.0528182413273E-02
(PID.TID 0000.0001) %MON forcing_empmr_max            =   1.4968533068895E-03
(PID.TID 0000.0001) %MON forcing_empmr_min            =  -1.2148576974869E-01
(PID.TID 0000.0001) %MON forcing_empmr_mean           =  -7.8135988872063E-06
(PID.TID 0000.0001) %MON forcing_empmr_sd             =   4.7497512905846E-04
(PID.TID 0000.0001) %MON forcing_empmr_del2           =   4.9700736997974E-06
(PID.TID 0000.0001) %MON forcing_fu_max               =   8.5647282004356E-01
(PID.TID 0000.0001) %MON forcing_fu_min               =  -1.1544914245605E+00
(PID.TID 0000.0001) %MON forcing_fu_mean              =   8.2835130278434E-03
(PID.TID 0000.0001) %MON forcing_fu_sd                =   1.0552606245352E-01
(PID.TID 0000.0001) %MON forcing_fu_del2              =   1.5082071115617E-04
(PID.TID 0000.0001) %MON forcing_fv_max               =   1.0249927043915E+00
(PID.TID 0000.0001) %MON forcing_fv_min               =  -9.9865892529488E-01
(PID.TID 0000.0001) %MON forcing_fv_mean              =  -9.3853705749212E-03
(PID.TID 0000.0001) %MON forcing_fv_sd                =   1.0977543840052E-01
(PID.TID 0000.0001) %MON forcing_fv_del2              =   1.4834537934631E-04
(PID.TID 0000.0001) %MON trAdv_CFL_u_max              =   2.3180296482928E-02
(PID.TID 0000.0001) %MON trAdv_CFL_v_max              =   2.4583276105639E-02
(PID.TID 0000.0001) %MON trAdv_CFL_w_max              =   1.2083232020261E-01
(PID.TID 0000.0001) %MON advcfl_uvel_max              =   2.2667519869742E-02
(PID.TID 0000.0001) %MON advcfl_vvel_max              =   2.3822757035691E-02
(PID.TID 0000.0001) %MON advcfl_wvel_max              =   1.2582141412496E-01
(PID.TID 0000.0001) %MON advcfl_W_hf_max              =   1.3270595069942E-01
(PID.TID 0000.0001) %MON pe_b_mean                    =   6.2380067258441E-04
(PID.TID 0000.0001) %MON ke_max                       =   1.0541810768280E+00
(PID.TID 0000.0001) %MON ke_mean                      =   4.6161099431372E-04
(PID.TID 0000.0001) %MON ke_vol                       =   1.3349971114309E+18
(PID.TID 0000.0001) %MON vort_r_min                   =  -3.7830242567296E-05
(PID.TID 0000.0001) %MON vort_r_max                   =   4.0212931407165E-05
(PID.TID 0000.0001) %MON vort_a_mean                  =  -1.9727864647440E-05
(PID.TID 0000.0001) %MON vort_a_sd                    =   7.4543231168443E-05
(PID.TID 0000.0001) %MON vort_p_mean                  =  -2.1760541621023E-05
(PID.TID 0000.0001) %MON vort_p_sd                    =   9.7245222743455E-05
(PID.TID 0000.0001) %MON surfExpan_theta_mean         =  -1.7839756359706E-06
(PID.TID 0000.0001) %MON surfExpan_salt_mean          =  -7.9930152987242E-08
(PID.TID 0000.0001) // =======================================================
(PID.TID 0000.0001) // End MONITOR dynamic field statistics
(PID.TID 0000.0001) // =======================================================
(PID.TID 0000.0001) // =======================================================
(PID.TID 0000.0001) // Begin MONITOR SEAICE statistics
(PID.TID 0000.0001) // =======================================================
(PID.TID 0000.0001) %MON seaice_tsnumber              =                    88
(PID.TID 0000.0001) %MON seaice_time_sec              =   7.9200000000000E+04
(PID.TID 0000.0001) %MON seaice_uice_max              =   4.0000000000000E-01
(PID.TID 0000.0001) %MON seaice_uice_min              =  -4.0000000000000E-01
(PID.TID 0000.0001) %MON seaice_uice_mean             =  -8.3054598624025E-03
(PID.TID 0000.0001) %MON seaice_uice_sd               =   1.9802383574176E-01
(PID.TID 0000.0001) %MON seaice_uice_del2             =   2.2931571122150E-04
(PID.TID 0000.0001) %MON seaice_vice_max              =   4.0000000000000E-01
(PID.TID 0000.0001) %MON seaice_vice_min              =  -4.0000000000000E-01
(PID.TID 0000.0001) %MON seaice_vice_mean             =  -2.1960776359499E-02
(PID.TID 0000.0001) %MON seaice_vice_sd               =   2.1302038025672E-01
(PID.TID 0000.0001) %MON seaice_vice_del2             =   2.3932563818061E-04
(PID.TID 0000.0001) %MON seaice_area_max              =   1.0000000000000E+00
(PID.TID 0000.0001) %MON seaice_area_min              =   0.0000000000000E+00
(PID.TID 0000.0001) %MON seaice_area_mean             =   7.0228921196119E-02
(PID.TID 0000.0001) %MON seaice_area_sd               =   2.3673331784901E-01
(PID.TID 0000.0001) %MON seaice_area_del2             =   4.6345073403344E-04
(PID.TID 0000.0001) %MON seaice_heff_max              =   2.5244966561440E+01
(PID.TID 0000.0001) %MON seaice_heff_min              =   0.0000000000000E+00
(PID.TID 0000.0001) %MON seaice_heff_mean             =   2.1665817781817E-01
(PID.TID 0000.0001) %MON seaice_heff_sd               =   1.0705943368143E+00
(PID.TID 0000.0001) %MON seaice_heff_del2             =   3.9127413102081E-03
(PID.TID 0000.0001) %MON seaice_hsnow_max             =   8.3379445984610E+00
(PID.TID 0000.0001) %MON seaice_hsnow_min             =   0.0000000000000E+00
(PID.TID 0000.0001) %MON seaice_hsnow_mean            =   2.4578352173935E-02
(PID.TID 0000.0001) %MON seaice_hsnow_sd              =   1.5784577664238E-01
(PID.TID 0000.0001) %MON seaice_hsnow_del2            =   1.2543435309704E-03
(PID.TID 0000.0001) // =======================================================
(PID.TID 0000.0001) // End MONITOR SEAICE statistics
(PID.TID 0000.0001) // =======================================================
 Computing Diagnostic #     86  oceQnet      Counter:       4   Parms: SM      U1      
 Computing Diagnostic #     87  oceQsw       Counter:       4   Parms: SM      U1      
 Computing Diagnostic #     84  oceFWflx     Counter:       4   Parms: SM      U1      
 Computing Diagnostic #     85  oceSflux     Counter:       4   Parms: SM      U1      
 Computing Diagnostic #     80  oceTAUX      Counter:       4   Parms: UU      U1      
           Vector  Mate for  oceTAUX      Diagnostic #     81  oceTAUY  exists 
 Computing Diagnostic #     81  oceTAUY      Counter:       4   Parms: VV      U1      
           Vector  Mate for  oceTAUY      Diagnostic #     80  oceTAUX  exists 
 Computing Diagnostic #     26  THETA        Counter:       4   Parms: SMR     MR      
 Computing Diagnostic #     27  SALT         Counter:       4   Parms: SMR     MR      
 Computing Diagnostic #     30  UVEL         Counter:       4   Parms: UUR     MR      
           Vector  Mate for  UVEL         Diagnostic #     31  VVEL     exists 
 Computing Diagnostic #     31  VVEL         Counter:       4   Parms: VVR     MR      
           Vector  Mate for  VVEL         Diagnostic #     30  UVEL     exists 
 Computing Diagnostic #    214  SIarea       Counter:       4   Parms: SM      M1      
 Computing Diagnostic #    217  SIheff       Counter:       4   Parms: SM      M1      
 Computing Diagnostic #    219  SIhsnow      Counter:       4   Parms: SM      M1      
 Computing Diagnostic #     83  sIceLoad     Counter:       4   Parms: SM      U1      
 Computing Diagnostic #    223  SIuice       Counter:       4   Parms: UU      M1      
           Vector  Mate for  SIuice       Diagnostic #    224  SIvice   exists 
 Computing Diagnostic #    224  SIvice       Counter:       4   Parms: VV      M1      
           Vector  Mate for  SIvice       Diagnostic #    223  SIuice   exists 
 Computing Diagnostic #    225  SItaux       Counter:       4   Parms: UU      U1      
           Vector  Mate for  SItaux       Diagnostic #    226  SItauy   exists 
 Computing Diagnostic #    226  SItauy       Counter:       4   Parms: VV      U1      
           Vector  Mate for  SItauy       Diagnostic #    225  SItaux   exists 
 Computing Diagnostic #    285  SIareaN      Counter:       4   Parms: SM      MX      
 Computing Diagnostic #    284  SIheffN      Counter:       4   Parms: SM      MX      
 Computing Diagnostic #    286  SIhsnowN     Counter:       4   Parms: SM      MX      
 Compute Stats, Diag. #    214  SIarea    vol(   0 ): 3.580E+14  Parms: SM      M1      
 Compute Stats, Diag. #    217  SIheff    vol(   0 ): 3.580E+14  Parms: SM      M1      
 Compute Stats, Diag. #    219  SIhsnow   vol(   0 ): 3.580E+14  Parms: SM      M1      
 Compute Stats, Diag. #     83  sIceLoad  vol(   0 ): 3.580E+14  Parms: SM      U1      
 Compute Stats, Diag. #    223  SIuice    vol(   0 ): 3.513E+14  Parms: UU      M1      
 Compute Stats, Diag. #    224  SIvice    vol(   0 ): 3.508E+14  Parms: VV      M1      
 Compute Stats, Diag. #    225  SItaux    vol(   0 ): 3.513E+14  Parms: UU      U1      
 Compute Stats, Diag. #    226  SItauy    vol(   0 ): 3.508E+14  Parms: VV      U1      
 cg2d: Sum(rhs),rhsMax =   6.71609257392804E+01  3.02638707931402E-01
 Compute Stats, Diag. #    214  SIarea    vol(   0 ): 3.580E+14  Parms: SM      M1      
 Compute Stats, Diag. #    217  SIheff    vol(   0 ): 3.580E+14  Parms: SM      M1      
 Compute Stats, Diag. #    219  SIhsnow   vol(   0 ): 3.580E+14  Parms: SM      M1      
 Compute Stats, Diag. #     83  sIceLoad  vol(   0 ): 3.580E+14  Parms: SM      U1      
 Compute Stats, Diag. #    223  SIuice    vol(   0 ): 3.513E+14  Parms: UU      M1      
 Compute Stats, Diag. #    224  SIvice    vol(   0 ): 3.508E+14  Parms: VV      M1      
 Compute Stats, Diag. #    225  SItaux    vol(   0 ): 3.513E+14  Parms: UU      U1      
 Compute Stats, Diag. #    226  SItauy    vol(   0 ): 3.508E+14  Parms: VV      U1      
 cg2d: Sum(rhs),rhsMax =   6.69546271338393E+01  3.02217102874484E-01
 Compute Stats, Diag. #    214  SIarea    vol(   0 ): 3.580E+14  Parms: SM      M1      
 Compute Stats, Diag. #    217  SIheff    vol(   0 ): 3.580E+14  Parms: SM      M1      
 Compute Stats, Diag. #    219  SIhsnow   vol(   0 ): 3.580E+14  Parms: SM      M1      
 Compute Stats, Diag. #     83  sIceLoad  vol(   0 ): 3.580E+14  Parms: SM      U1      
 Compute Stats, Diag. #    223  SIuice    vol(   0 ): 3.513E+14  Parms: UU      M1      
 Compute Stats, Diag. #    224  SIvice    vol(   0 ): 3.508E+14  Parms: VV      M1      
 Compute Stats, Diag. #    225  SItaux    vol(   0 ): 3.513E+14  Parms: UU      U1      
 Compute Stats, Diag. #    226  SItauy    vol(   0 ): 3.508E+14  Parms: VV      U1      
 cg2d: Sum(rhs),rhsMax =   6.67642014422285E+01  3.01732804316942E-01
 Compute Stats, Diag. #    214  SIarea    vol(   0 ): 3.580E+14  Parms: SM      M1      
 Compute Stats, Diag. #    217  SIheff    vol(   0 ): 3.580E+14  Parms: SM      M1      
 Compute Stats, Diag. #    219  SIhsnow   vol(   0 ): 3.580E+14  Parms: SM      M1      
 Compute Stats, Diag. #     83  sIceLoad  vol(   0 ): 3.580E+14  Parms: SM      U1      
 Compute Stats, Diag. #    223  SIuice    vol(   0 ): 3.513E+14  Parms: UU      M1      
 Compute Stats, Diag. #    224  SIvice    vol(   0 ): 3.508E+14  Parms: VV      M1      
 Compute Stats, Diag. #    225  SItaux    vol(   0 ): 3.513E+14  Parms: UU      U1      
 Compute Stats, Diag. #    226  SItauy    vol(   0 ): 3.508E+14  Parms: VV      U1      
 cg2d: Sum(rhs),rhsMax =   6.65630444193170E+01  3.01190341440824E-01
 Computing Diagnostic #     86  oceQnet      Counter:       4   Parms: SM      U1      
 Computing Diagnostic #     87  oceQsw       Counter:       4   Parms: SM      U1      
 Computing Diagnostic #     84  oceFWflx     Counter:       4   Parms: SM      U1      
 Computing Diagnostic #     85  oceSflux     Counter:       4   Parms: SM      U1      
 Computing Diagnostic #     80  oceTAUX      Counter:       4   Parms: UU      U1      
           Vector  Mate for  oceTAUX      Diagnostic #     81  oceTAUY  exists 
 Computing Diagnostic #     81  oceTAUY      Counter:       4   Parms: VV      U1      
           Vector  Mate for  oceTAUY      Diagnostic #     80  oceTAUX  exists 
 Computing Diagnostic #     26  THETA        Counter:       4   Parms: SMR     MR      
 Computing Diagnostic #     27  SALT         Counter:       4   Parms: SMR     MR      
 Computing Diagnostic #     30  UVEL         Counter:       4   Parms: UUR     MR      
           Vector  Mate for  UVEL         Diagnostic #     31  VVEL     exists 
 Computing Diagnostic #     31  VVEL         Counter:       4   Parms: VVR     MR      
           Vector  Mate for  VVEL         Diagnostic #     30  UVEL     exists 
 Computing Diagnostic #    214  SIarea       Counter:       4   Parms: SM      M1      
 Computing Diagnostic #    217  SIheff       Counter:       4   Parms: SM      M1      
 Computing Diagnostic #    219  SIhsnow      Counter:       4   Parms: SM      M1      
 Computing Diagnostic #     83  sIceLoad     Counter:       4   Parms: SM      U1      
 Computing Diagnostic #    223  SIuice       Counter:       4   Parms: UU      M1      
           Vector  Mate for  SIuice       Diagnostic #    224  SIvice   exists 
 Computing Diagnostic #    224  SIvice       Counter:       4   Parms: VV      M1      
           Vector  Mate for  SIvice       Diagnostic #    223  SIuice   exists 
 Computing Diagnostic #    225  SItaux       Counter:       4   Parms: UU      U1      
           Vector  Mate for  SItaux       Diagnostic #    226  SItauy   exists 
 Computing Diagnostic #    226  SItauy       Counter:       4   Parms: VV      U1      
           Vector  Mate for  SItauy       Diagnostic #    225  SItaux   exists 
 Computing Diagnostic #    285  SIareaN      Counter:       4   Parms: SM      MX      
 Computing Diagnostic #    284  SIheffN      Counter:       4   Parms: SM      MX      
 Computing Diagnostic #    286  SIhsnowN     Counter:       4   Parms: SM      MX      
 Compute Stats, Diag. #    214  SIarea    vol(   0 ): 3.580E+14  Parms: SM      M1      
 Compute Stats, Diag. #    217  SIheff    vol(   0 ): 3.580E+14  Parms: SM      M1      
 Compute Stats, Diag. #    219  SIhsnow   vol(   0 ): 3.580E+14  Parms: SM      M1      
 Compute Stats, Diag. #     83  sIceLoad  vol(   0 ): 3.580E+14  Parms: SM      U1      
 Compute Stats, Diag. #    223  SIuice    vol(   0 ): 3.513E+14  Parms: UU      M1      
 Compute Stats, Diag. #    224  SIvice    vol(   0 ): 3.508E+14  Parms: VV      M1      
 Compute Stats, Diag. #    225  SItaux    vol(   0 ): 3.513E+14  Parms: UU      U1      
 Compute Stats, Diag. #    226  SItauy    vol(   0 ): 3.508E+14  Parms: VV      U1      
 cg2d: Sum(rhs),rhsMax =   6.63737013639864E+01  3.00594514301394E-01
 Compute Stats, Diag. #    214  SIarea    vol(   0 ): 3.580E+14  Parms: SM      M1      
 Compute Stats, Diag. #    217  SIheff    vol(   0 ): 3.580E+14  Parms: SM      M1      
 Compute Stats, Diag. #    219  SIhsnow   vol(   0 ): 3.580E+14  Parms: SM      M1      
 Compute Stats, Diag. #     83  sIceLoad  vol(   0 ): 3.580E+14  Parms: SM      U1      
 Compute Stats, Diag. #    223  SIuice    vol(   0 ): 3.513E+14  Parms: UU      M1      
 Compute Stats, Diag. #    224  SIvice    vol(   0 ): 3.508E+14  Parms: VV      M1      
 Compute Stats, Diag. #    225  SItaux    vol(   0 ): 3.513E+14  Parms: UU      U1      
 Compute Stats, Diag. #    226  SItauy    vol(   0 ): 3.508E+14  Parms: VV      U1      
 cg2d: Sum(rhs),rhsMax =   6.61753508873659E+01  2.99950792951723E-01
 Compute Stats, Diag. #    214  SIarea    vol(   0 ): 3.580E+14  Parms: SM      M1      
 Compute Stats, Diag. #    217  SIheff    vol(   0 ): 3.580E+14  Parms: SM      M1      
 Compute Stats, Diag. #    219  SIhsnow   vol(   0 ): 3.580E+14  Parms: SM      M1      
 Compute Stats, Diag. #     83  sIceLoad  vol(   0 ): 3.580E+14  Parms: SM      U1      
 Compute Stats, Diag. #    223  SIuice    vol(   0 ): 3.513E+14  Parms: UU      M1      
 Compute Stats, Diag. #    224  SIvice    vol(   0 ): 3.508E+14  Parms: VV      M1      
 Compute Stats, Diag. #    225  SItaux    vol(   0 ): 3.513E+14  Parms: UU      U1      
 Compute Stats, Diag. #    226  SItauy    vol(   0 ): 3.508E+14  Parms: VV      U1      
 cg2d: Sum(rhs),rhsMax =   6.59671843815035E+01  2.99265908011319E-01
 Compute Stats, Diag. #    214  SIarea    vol(   0 ): 3.580E+14  Parms: SM      M1      
 Compute Stats, Diag. #    217  SIheff    vol(   0 ): 3.580E+14  Parms: SM      M1      
 Compute Stats, Diag. #    219  SIhsnow   vol(   0 ): 3.580E+14  Parms: SM      M1      
 Compute Stats, Diag. #     83  sIceLoad  vol(   0 ): 3.580E+14  Parms: SM      U1      
 Compute Stats, Diag. #    223  SIuice    vol(   0 ): 3.513E+14  Parms: UU      M1      
 Compute Stats, Diag. #    224  SIvice    vol(   0 ): 3.508E+14  Parms: VV      M1      
 Compute Stats, Diag. #    225  SItaux    vol(   0 ): 3.513E+14  Parms: UU      U1      
 Compute Stats, Diag. #    226  SItauy    vol(   0 ): 3.508E+14  Parms: VV      U1      
 cg2d: Sum(rhs),rhsMax =   6.57739428236308E+01  2.98549252556058E-01
(PID.TID 0000.0001)      cg2d_init_res =   2.78532510359845E-01
(PID.TID 0000.0001)      cg2d_iters(min,last) =      -1      32
(PID.TID 0000.0001)      cg2d_last_res =   2.20586460570764E-05
(PID.TID 0000.0001) // =======================================================
(PID.TID 0000.0001) // Begin MONITOR dynamic field statistics
(PID.TID 0000.0001) // =======================================================
(PID.TID 0000.0001) %MON time_tsnumber                =                    96
(PID.TID 0000.0001) %MON time_secondsf                =   8.6400000000000E+04
(PID.TID 0000.0001) %MON dynstat_eta_max              =   1.0813334025445E+00
(PID.TID 0000.0001) %MON dynstat_eta_min              =  -2.8614146820399E+00
(PID.TID 0000.0001) %MON dynstat_eta_mean             =  -2.0806398795465E-03
(PID.TID 0000.0001) %MON dynstat_eta_sd               =   6.8530893302531E-01
(PID.TID 0000.0001) %MON dynstat_eta_del2             =   8.0362253839723E-05
(PID.TID 0000.0001) %MON dynstat_uvel_max             =   9.6650099720547E-01
(PID.TID 0000.0001) %MON dynstat_uvel_min             =  -1.2747846302222E+00
(PID.TID 0000.0001) %MON dynstat_uvel_mean            =   8.5814710288269E-04
(PID.TID 0000.0001) %MON dynstat_uvel_sd              =   2.1009891919890E-02
(PID.TID 0000.0001) %MON dynstat_uvel_del2            =   1.3101394301430E-05
(PID.TID 0000.0001) %MON dynstat_vvel_max             =   1.3497020603902E+00
(PID.TID 0000.0001) %MON dynstat_vvel_min             =  -9.0368322924988E-01
(PID.TID 0000.0001) %MON dynstat_vvel_mean            =   1.5113441354241E-03
(PID.TID 0000.0001) %MON dynstat_vvel_sd              =   2.2269976155819E-02
(PID.TID 0000.0001) %MON dynstat_vvel_del2            =   1.2748030032626E-05
(PID.TID 0000.0001) %MON dynstat_wvel_max             =   4.0782411123737E-03
(PID.TID 0000.0001) %MON dynstat_wvel_min             =  -1.9569217114447E-03
(PID.TID 0000.0001) %MON dynstat_wvel_mean            =   3.0878568465848E-08
(PID.TID 0000.0001) %MON dynstat_wvel_sd              =   3.0965548611612E-05
(PID.TID 0000.0001) %MON dynstat_wvel_del2            =   4.9577823059468E-08
(PID.TID 0000.0001) %MON dynstat_theta_max            =   3.2603880080675E+01
(PID.TID 0000.0001) %MON dynstat_theta_min            =  -2.0422554894251E+00
(PID.TID 0000.0001) %MON dynstat_theta_mean           =   3.5905057192481E+00
(PID.TID 0000.0001) %MON dynstat_theta_sd             =   4.4361957770470E+00
(PID.TID 0000.0001) %MON dynstat_theta_del2           =   1.0382821526072E-04
(PID.TID 0000.0001) %MON dynstat_salt_max             =   4.0711531078088E+01
(PID.TID 0000.0001) %MON dynstat_salt_min             =   1.6692697142109E+01
(PID.TID 0000.0001) %MON dynstat_salt_mean            =   3.4725609028140E+01
(PID.TID 0000.0001) %MON dynstat_salt_sd              =   3.7708823712689E-01
(PID.TID 0000.0001) %MON dynstat_salt_del2            =   3.0019350645022E-05
(PID.TID 0000.0001) %MON dynstat_sst_max              =   3.2526311195081E+01
(PID.TID 0000.0001) %MON dynstat_sst_min              =  -1.8742654008512E+00
(PID.TID 0000.0001) %MON dynstat_sst_mean             =   1.8486574375097E+01
(PID.TID 0000.0001) %MON dynstat_sst_sd               =   1.0116777324322E+01
(PID.TID 0000.0001) %MON dynstat_sst_del2             =   8.4843695383310E-04
(PID.TID 0000.0001) %MON dynstat_sss_max              =   3.9333522933539E+01
(PID.TID 0000.0001) %MON dynstat_sss_min              =   1.6692697142109E+01
(PID.TID 0000.0001) %MON dynstat_sss_mean             =   3.4687495534269E+01
(PID.TID 0000.0001) %MON dynstat_sss_sd               =   1.1294854354183E+00
(PID.TID 0000.0001) %MON dynstat_sss_del2             =   7.3153419663741E-04
(PID.TID 0000.0001) %MON forcing_qnet_max             =   2.0848815917969E+03
(PID.TID 0000.0001) %MON forcing_qnet_min             =  -7.7036962890625E+02
(PID.TID 0000.0001) %MON forcing_qnet_mean            =  -1.7231284889442E+01
(PID.TID 0000.0001) %MON forcing_qnet_sd              =   2.0037272687999E+02
(PID.TID 0000.0001) %MON forcing_qnet_del2            =   3.9128146837742E-01
(PID.TID 0000.0001) %MON forcing_qsw_max              =   0.0000000000000E+00
(PID.TID 0000.0001) %MON forcing_qsw_min              =  -1.0585321494402E+02
(PID.TID 0000.0001) %MON forcing_qsw_mean             =  -2.1879568883999E+01
(PID.TID 0000.0001) %MON forcing_qsw_sd               =   3.0258313015736E+01
(PID.TID 0000.0001) %MON forcing_qsw_del2             =   1.9665687064090E-02
(PID.TID 0000.0001) %MON forcing_empmr_max            =   1.3741048751399E-03
(PID.TID 0000.0001) %MON forcing_empmr_min            =  -1.0384918749332E-01
(PID.TID 0000.0001) %MON forcing_empmr_mean           =  -6.9890224776505E-06
(PID.TID 0000.0001) %MON forcing_empmr_sd             =   4.1408793352727E-04
(PID.TID 0000.0001) %MON forcing_empmr_del2           =   4.3096915758652E-06
(PID.TID 0000.0001) %MON forcing_fu_max               =   8.1477856636047E-01
(PID.TID 0000.0001) %MON forcing_fu_min               =  -1.2592715620995E+00
(PID.TID 0000.0001) %MON forcing_fu_mean              =   7.9138606167325E-03
(PID.TID 0000.0001) %MON forcing_fu_sd                =   1.0501538558513E-01
(PID.TID 0000.0001) %MON forcing_fu_del2              =   1.5212925179673E-04
(PID.TID 0000.0001) %MON forcing_fv_max               =   1.0861481428146E+00
(PID.TID 0000.0001) %MON forcing_fv_min               =  -1.1017903685570E+00
(PID.TID 0000.0001) %MON forcing_fv_mean              =  -9.5361771102584E-03
(PID.TID 0000.0001) %MON forcing_fv_sd                =   1.0990011202563E-01
(PID.TID 0000.0001) %MON forcing_fv_del2              =   1.4830952798589E-04
(PID.TID 0000.0001) %MON trAdv_CFL_u_max              =   2.3083714184037E-02
(PID.TID 0000.0001) %MON trAdv_CFL_v_max              =   2.4633277900265E-02
(PID.TID 0000.0001) %MON trAdv_CFL_w_max              =   1.2554597964443E-01
(PID.TID 0000.0001) %MON advcfl_uvel_max              =   2.2767963750970E-02
(PID.TID 0000.0001) %MON advcfl_vvel_max              =   2.3958431931720E-02
(PID.TID 0000.0001) %MON advcfl_wvel_max              =   1.3073561318967E-01
(PID.TID 0000.0001) %MON advcfl_W_hf_max              =   1.3797557484742E-01
(PID.TID 0000.0001) %MON pe_b_mean                    =   6.1778208506939E-04
(PID.TID 0000.0001) %MON ke_max                       =   1.0585236202843E+00
(PID.TID 0000.0001) %MON ke_mean                      =   4.5344984081048E-04
(PID.TID 0000.0001) %MON ke_vol                       =   1.3349971298529E+18
(PID.TID 0000.0001) %MON vort_r_min                   =  -3.6595639507958E-05
(PID.TID 0000.0001) %MON vort_r_max                   =   3.9549549931768E-05
(PID.TID 0000.0001) %MON vort_a_mean                  =  -1.9727864647440E-05
(PID.TID 0000.0001) %MON vort_a_sd                    =   7.4543179458182E-05
(PID.TID 0000.0001) %MON vort_p_mean                  =  -2.1760541055880E-05
(PID.TID 0000.0001) %MON vort_p_sd                    =   9.7245456612213E-05
(PID.TID 0000.0001) %MON surfExpan_theta_mean         =  -1.6462228896277E-06
(PID.TID 0000.0001) %MON surfExpan_salt_mean          =  -8.1871494845933E-08
(PID.TID 0000.0001) // =======================================================
(PID.TID 0000.0001) // End MONITOR dynamic field statistics
(PID.TID 0000.0001) // =======================================================
(PID.TID 0000.0001) // =======================================================
(PID.TID 0000.0001) // Begin MONITOR SEAICE statistics
(PID.TID 0000.0001) // =======================================================
(PID.TID 0000.0001) %MON seaice_tsnumber              =                    96
(PID.TID 0000.0001) %MON seaice_time_sec              =   8.6400000000000E+04
(PID.TID 0000.0001) %MON seaice_uice_max              =   4.0000000000000E-01
(PID.TID 0000.0001) %MON seaice_uice_min              =  -4.0000000000000E-01
(PID.TID 0000.0001) %MON seaice_uice_mean             =  -8.3054598624025E-03
(PID.TID 0000.0001) %MON seaice_uice_sd               =   1.9802383574176E-01
(PID.TID 0000.0001) %MON seaice_uice_del2             =   2.2931571122150E-04
(PID.TID 0000.0001) %MON seaice_vice_max              =   4.0000000000000E-01
(PID.TID 0000.0001) %MON seaice_vice_min              =  -4.0000000000000E-01
(PID.TID 0000.0001) %MON seaice_vice_mean             =  -2.1960776359499E-02
(PID.TID 0000.0001) %MON seaice_vice_sd               =   2.1302038025672E-01
(PID.TID 0000.0001) %MON seaice_vice_del2             =   2.3932563818061E-04
(PID.TID 0000.0001) %MON seaice_area_max              =   1.0000000000000E+00
(PID.TID 0000.0001) %MON seaice_area_min              =   0.0000000000000E+00
(PID.TID 0000.0001) %MON seaice_area_mean             =   7.0089617818752E-02
(PID.TID 0000.0001) %MON seaice_area_sd               =   2.3660479740116E-01
(PID.TID 0000.0001) %MON seaice_area_del2             =   4.6219816511417E-04
(PID.TID 0000.0001) %MON seaice_heff_max              =   2.5241269433172E+01
(PID.TID 0000.0001) %MON seaice_heff_min              =   0.0000000000000E+00
(PID.TID 0000.0001) %MON seaice_heff_mean             =   2.1660417293686E-01
(PID.TID 0000.0001) %MON seaice_heff_sd               =   1.0706631090711E+00
(PID.TID 0000.0001) %MON seaice_heff_del2             =   3.9117014926184E-03
(PID.TID 0000.0001) %MON seaice_hsnow_max             =   8.3367288039008E+00
(PID.TID 0000.0001) %MON seaice_hsnow_min             =   0.0000000000000E+00
(PID.TID 0000.0001) %MON seaice_hsnow_mean            =   2.4572962320364E-02
(PID.TID 0000.0001) %MON seaice_hsnow_sd              =   1.5781886558462E-01
(PID.TID 0000.0001) %MON seaice_hsnow_del2            =   1.2540701257674E-03
(PID.TID 0000.0001) // =======================================================
(PID.TID 0000.0001) // End MONITOR SEAICE statistics
(PID.TID 0000.0001) // =======================================================
 Computing Diagnostic #     86  oceQnet      Counter:       4   Parms: SM      U1      
 Computing Diagnostic #     87  oceQsw       Counter:       4   Parms: SM      U1      
 Computing Diagnostic #     84  oceFWflx     Counter:       4   Parms: SM      U1      
 Computing Diagnostic #     85  oceSflux     Counter:       4   Parms: SM      U1      
 Computing Diagnostic #     80  oceTAUX      Counter:       4   Parms: UU      U1      
           Vector  Mate for  oceTAUX      Diagnostic #     81  oceTAUY  exists 
 Computing Diagnostic #     81  oceTAUY      Counter:       4   Parms: VV      U1      
           Vector  Mate for  oceTAUY      Diagnostic #     80  oceTAUX  exists 
 Computing Diagnostic #     26  THETA        Counter:       4   Parms: SMR     MR      
 Computing Diagnostic #     27  SALT         Counter:       4   Parms: SMR     MR      
 Computing Diagnostic #     30  UVEL         Counter:       4   Parms: UUR     MR      
           Vector  Mate for  UVEL         Diagnostic #     31  VVEL     exists 
 Computing Diagnostic #     31  VVEL         Counter:       4   Parms: VVR     MR      
           Vector  Mate for  VVEL         Diagnostic #     30  UVEL     exists 
 Computing Diagnostic #    214  SIarea       Counter:       4   Parms: SM      M1      
 Computing Diagnostic #    217  SIheff       Counter:       4   Parms: SM      M1      
 Computing Diagnostic #    219  SIhsnow      Counter:       4   Parms: SM      M1      
 Computing Diagnostic #     83  sIceLoad     Counter:       4   Parms: SM      U1      
 Computing Diagnostic #    223  SIuice       Counter:       4   Parms: UU      M1      
           Vector  Mate for  SIuice       Diagnostic #    224  SIvice   exists 
 Computing Diagnostic #    224  SIvice       Counter:       4   Parms: VV      M1      
           Vector  Mate for  SIvice       Diagnostic #    223  SIuice   exists 
 Computing Diagnostic #    225  SItaux       Counter:       4   Parms: UU      U1      
           Vector  Mate for  SItaux       Diagnostic #    226  SItauy   exists 
 Computing Diagnostic #    226  SItauy       Counter:       4   Parms: VV      U1      
           Vector  Mate for  SItauy       Diagnostic #    225  SItaux   exists 
 Computing Diagnostic #    285  SIareaN      Counter:       4   Parms: SM      MX      
 Computing Diagnostic #    284  SIheffN      Counter:       4   Parms: SM      MX      
 Computing Diagnostic #    286  SIhsnowN     Counter:       4   Parms: SM      MX      
 Compute Stats, Diag. #    214  SIarea    vol(   0 ): 3.580E+14  Parms: SM      M1      
 Compute Stats, Diag. #    217  SIheff    vol(   0 ): 3.580E+14  Parms: SM      M1      
 Compute Stats, Diag. #    219  SIhsnow   vol(   0 ): 3.580E+14  Parms: SM      M1      
 Compute Stats, Diag. #     83  sIceLoad  vol(   0 ): 3.580E+14  Parms: SM      U1      
 Compute Stats, Diag. #    223  SIuice    vol(   0 ): 3.513E+14  Parms: UU      M1      
 Compute Stats, Diag. #    224  SIvice    vol(   0 ): 3.508E+14  Parms: VV      M1      
 Compute Stats, Diag. #    225  SItaux    vol(   0 ): 3.513E+14  Parms: UU      U1      
 Compute Stats, Diag. #    226  SItauy    vol(   0 ): 3.508E+14  Parms: VV      U1      
 cg2d: Sum(rhs),rhsMax =   6.55888570028209E+01  2.97807537947954E-01
 Compute Stats, Diag. #    214  SIarea    vol(   0 ): 3.580E+14  Parms: SM      M1      
 Compute Stats, Diag. #    217  SIheff    vol(   0 ): 3.580E+14  Parms: SM      M1      
 Compute Stats, Diag. #    219  SIhsnow   vol(   0 ): 3.580E+14  Parms: SM      M1      
 Compute Stats, Diag. #     83  sIceLoad  vol(   0 ): 3.580E+14  Parms: SM      U1      
 Compute Stats, Diag. #    223  SIuice    vol(   0 ): 3.513E+14  Parms: UU      M1      
 Compute Stats, Diag. #    224  SIvice    vol(   0 ): 3.508E+14  Parms: VV      M1      
 Compute Stats, Diag. #    225  SItaux    vol(   0 ): 3.513E+14  Parms: UU      U1      
 Compute Stats, Diag. #    226  SItauy    vol(   0 ): 3.508E+14  Parms: VV      U1      
 cg2d: Sum(rhs),rhsMax =   6.53923882127426E+01  2.97051535100897E-01
 Compute Stats, Diag. #    214  SIarea    vol(   0 ): 3.580E+14  Parms: SM      M1      
 Compute Stats, Diag. #    217  SIheff    vol(   0 ): 3.580E+14  Parms: SM      M1      
 Compute Stats, Diag. #    219  SIhsnow   vol(   0 ): 3.580E+14  Parms: SM      M1      
 Compute Stats, Diag. #     83  sIceLoad  vol(   0 ): 3.580E+14  Parms: SM      U1      
 Compute Stats, Diag. #    223  SIuice    vol(   0 ): 3.513E+14  Parms: UU      M1      
 Compute Stats, Diag. #    224  SIvice    vol(   0 ): 3.508E+14  Parms: VV      M1      
 Compute Stats, Diag. #    225  SItaux    vol(   0 ): 3.513E+14  Parms: UU      U1      
 Compute Stats, Diag. #    226  SItauy    vol(   0 ): 3.508E+14  Parms: VV      U1      
 cg2d: Sum(rhs),rhsMax =   6.52125181285212E+01  2.96291303399265E-01
 Compute Stats, Diag. #    214  SIarea    vol(   0 ): 3.580E+14  Parms: SM      M1      
 Compute Stats, Diag. #    217  SIheff    vol(   0 ): 3.580E+14  Parms: SM      M1      
 Compute Stats, Diag. #    219  SIhsnow   vol(   0 ): 3.580E+14  Parms: SM      M1      
 Compute Stats, Diag. #     83  sIceLoad  vol(   0 ): 3.580E+14  Parms: SM      U1      
 Compute Stats, Diag. #    223  SIuice    vol(   0 ): 3.513E+14  Parms: UU      M1      
 Compute Stats, Diag. #    224  SIvice    vol(   0 ): 3.508E+14  Parms: VV      M1      
 Compute Stats, Diag. #    225  SItaux    vol(   0 ): 3.513E+14  Parms: UU      U1      
 Compute Stats, Diag. #    226  SItauy    vol(   0 ): 3.508E+14  Parms: VV      U1      
 cg2d: Sum(rhs),rhsMax =   6.50231566053638E+01  2.95539047536528E-01
 Computing Diagnostic #     86  oceQnet      Counter:       4   Parms: SM      U1      
 Computing Diagnostic #     87  oceQsw       Counter:       4   Parms: SM      U1      
 Computing Diagnostic #     84  oceFWflx     Counter:       4   Parms: SM      U1      
 Computing Diagnostic #     85  oceSflux     Counter:       4   Parms: SM      U1      
 Computing Diagnostic #     80  oceTAUX      Counter:       4   Parms: UU      U1      
           Vector  Mate for  oceTAUX      Diagnostic #     81  oceTAUY  exists 
 Computing Diagnostic #     81  oceTAUY      Counter:       4   Parms: VV      U1      
           Vector  Mate for  oceTAUY      Diagnostic #     80  oceTAUX  exists 
 Computing Diagnostic #     26  THETA        Counter:       4   Parms: SMR     MR      
 Computing Diagnostic #     27  SALT         Counter:       4   Parms: SMR     MR      
 Computing Diagnostic #     30  UVEL         Counter:       4   Parms: UUR     MR      
           Vector  Mate for  UVEL         Diagnostic #     31  VVEL     exists 
 Computing Diagnostic #     31  VVEL         Counter:       4   Parms: VVR     MR      
           Vector  Mate for  VVEL         Diagnostic #     30  UVEL     exists 
 Computing Diagnostic #    214  SIarea       Counter:       4   Parms: SM      M1      
 Computing Diagnostic #    217  SIheff       Counter:       4   Parms: SM      M1      
 Computing Diagnostic #    219  SIhsnow      Counter:       4   Parms: SM      M1      
 Computing Diagnostic #     83  sIceLoad     Counter:       4   Parms: SM      U1      
 Computing Diagnostic #    223  SIuice       Counter:       4   Parms: UU      M1      
           Vector  Mate for  SIuice       Diagnostic #    224  SIvice   exists 
 Computing Diagnostic #    224  SIvice       Counter:       4   Parms: VV      M1      
           Vector  Mate for  SIvice       Diagnostic #    223  SIuice   exists 
 Computing Diagnostic #    225  SItaux       Counter:       4   Parms: UU      U1      
           Vector  Mate for  SItaux       Diagnostic #    226  SItauy   exists 
 Computing Diagnostic #    226  SItauy       Counter:       4   Parms: VV      U1      
           Vector  Mate for  SItauy       Diagnostic #    225  SItaux   exists 
 Computing Diagnostic #    285  SIareaN      Counter:       4   Parms: SM      MX      
 Computing Diagnostic #    284  SIheffN      Counter:       4   Parms: SM      MX      
 Computing Diagnostic #    286  SIhsnowN     Counter:       4   Parms: SM      MX      
 Compute Stats, Diag. #    214  SIarea    vol(   0 ): 3.580E+14  Parms: SM      M1      
 Compute Stats, Diag. #    217  SIheff    vol(   0 ): 3.580E+14  Parms: SM      M1      
 Compute Stats, Diag. #    219  SIhsnow   vol(   0 ): 3.580E+14  Parms: SM      M1      
 Compute Stats, Diag. #     83  sIceLoad  vol(   0 ): 3.580E+14  Parms: SM      U1      
 Compute Stats, Diag. #    223  SIuice    vol(   0 ): 3.513E+14  Parms: UU      M1      
 Compute Stats, Diag. #    224  SIvice    vol(   0 ): 3.508E+14  Parms: VV      M1      
 Compute Stats, Diag. #    225  SItaux    vol(   0 ): 3.513E+14  Parms: UU      U1      
 Compute Stats, Diag. #    226  SItauy    vol(   0 ): 3.508E+14  Parms: VV      U1      
 cg2d: Sum(rhs),rhsMax =   6.48508193934043E+01  2.94803589386446E-01
 Compute Stats, Diag. #    214  SIarea    vol(   0 ): 3.580E+14  Parms: SM      M1      
 Compute Stats, Diag. #    217  SIheff    vol(   0 ): 3.580E+14  Parms: SM      M1      
 Compute Stats, Diag. #    219  SIhsnow   vol(   0 ): 3.580E+14  Parms: SM      M1      
 Compute Stats, Diag. #     83  sIceLoad  vol(   0 ): 3.580E+14  Parms: SM      U1      
 Compute Stats, Diag. #    223  SIuice    vol(   0 ): 3.513E+14  Parms: UU      M1      
 Compute Stats, Diag. #    224  SIvice    vol(   0 ): 3.508E+14  Parms: VV      M1      
 Compute Stats, Diag. #    225  SItaux    vol(   0 ): 3.513E+14  Parms: UU      U1      
 Compute Stats, Diag. #    226  SItauy    vol(   0 ): 3.508E+14  Parms: VV      U1      
 cg2d: Sum(rhs),rhsMax =   6.46816682208273E+01  2.94096601214278E-01
 Compute Stats, Diag. #    214  SIarea    vol(   0 ): 3.580E+14  Parms: SM      M1      
 Compute Stats, Diag. #    217  SIheff    vol(   0 ): 3.580E+14  Parms: SM      M1      
 Compute Stats, Diag. #    219  SIhsnow   vol(   0 ): 3.580E+14  Parms: SM      M1      
 Compute Stats, Diag. #     83  sIceLoad  vol(   0 ): 3.580E+14  Parms: SM      U1      
 Compute Stats, Diag. #    223  SIuice    vol(   0 ): 3.513E+14  Parms: UU      M1      
 Compute Stats, Diag. #    224  SIvice    vol(   0 ): 3.508E+14  Parms: VV      M1      
 Compute Stats, Diag. #    225  SItaux    vol(   0 ): 3.513E+14  Parms: UU      U1      
 Compute Stats, Diag. #    226  SItauy    vol(   0 ): 3.508E+14  Parms: VV      U1      
 cg2d: Sum(rhs),rhsMax =   6.45146634123811E+01  2.93427781422458E-01
 Compute Stats, Diag. #    214  SIarea    vol(   0 ): 3.580E+14  Parms: SM      M1      
 Compute Stats, Diag. #    217  SIheff    vol(   0 ): 3.580E+14  Parms: SM      M1      
 Compute Stats, Diag. #    219  SIhsnow   vol(   0 ): 3.580E+14  Parms: SM      M1      
 Compute Stats, Diag. #     83  sIceLoad  vol(   0 ): 3.580E+14  Parms: SM      U1      
 Compute Stats, Diag. #    223  SIuice    vol(   0 ): 3.513E+14  Parms: UU      M1      
 Compute Stats, Diag. #    224  SIvice    vol(   0 ): 3.508E+14  Parms: VV      M1      
 Compute Stats, Diag. #    225  SItaux    vol(   0 ): 3.513E+14  Parms: UU      U1      
 Compute Stats, Diag. #    226  SItauy    vol(   0 ): 3.508E+14  Parms: VV      U1      
 cg2d: Sum(rhs),rhsMax =   6.43356069169102E+01  2.92808585279400E-01
(PID.TID 0000.0001)      cg2d_init_res =   2.73727166281635E-01
(PID.TID 0000.0001)      cg2d_iters(min,last) =      -1      31
(PID.TID 0000.0001)      cg2d_last_res =   2.35628865597043E-05
(PID.TID 0000.0001) // =======================================================
(PID.TID 0000.0001) // Begin MONITOR dynamic field statistics
(PID.TID 0000.0001) // =======================================================
(PID.TID 0000.0001) %MON time_tsnumber                =                   104
(PID.TID 0000.0001) %MON time_secondsf                =   9.3600000000000E+04
(PID.TID 0000.0001) %MON dynstat_eta_max              =   1.0728829529507E+00
(PID.TID 0000.0001) %MON dynstat_eta_min              =  -2.8471921697764E+00
(PID.TID 0000.0001) %MON dynstat_eta_mean             =  -2.0351407210768E-03
(PID.TID 0000.0001) %MON dynstat_eta_sd               =   6.8242451160241E-01
(PID.TID 0000.0001) %MON dynstat_eta_del2             =   7.8480141579566E-05
(PID.TID 0000.0001) %MON dynstat_uvel_max             =   9.3207939460886E-01
(PID.TID 0000.0001) %MON dynstat_uvel_min             =  -1.2382001045642E+00
(PID.TID 0000.0001) %MON dynstat_uvel_mean            =   8.3240714094056E-04
(PID.TID 0000.0001) %MON dynstat_uvel_sd              =   2.0923139211561E-02
(PID.TID 0000.0001) %MON dynstat_uvel_del2            =   1.2913690483003E-05
(PID.TID 0000.0001) %MON dynstat_vvel_max             =   1.3514580044693E+00
(PID.TID 0000.0001) %MON dynstat_vvel_min             =  -8.9730993621431E-01
(PID.TID 0000.0001) %MON dynstat_vvel_mean            =   1.3872084420524E-03
(PID.TID 0000.0001) %MON dynstat_vvel_sd              =   2.2065916112274E-02
(PID.TID 0000.0001) %MON dynstat_vvel_del2            =   1.2457610878412E-05
(PID.TID 0000.0001) %MON dynstat_wvel_max             =   4.1396362655647E-03
(PID.TID 0000.0001) %MON dynstat_wvel_min             =  -2.4515112970191E-03
(PID.TID 0000.0001) %MON dynstat_wvel_mean            =   2.7270986247745E-08
(PID.TID 0000.0001) %MON dynstat_wvel_sd              =   3.0231742923589E-05
(PID.TID 0000.0001) %MON dynstat_wvel_del2            =   4.8189372218448E-08
(PID.TID 0000.0001) %MON dynstat_theta_max            =   3.2572994155694E+01
(PID.TID 0000.0001) %MON dynstat_theta_min            =  -2.0422127823701E+00
(PID.TID 0000.0001) %MON dynstat_theta_mean           =   3.5905166439602E+00
(PID.TID 0000.0001) %MON dynstat_theta_sd             =   4.4362553657283E+00
(PID.TID 0000.0001) %MON dynstat_theta_del2           =   1.0340276769088E-04
(PID.TID 0000.0001) %MON dynstat_salt_max             =   4.0711532433202E+01
(PID.TID 0000.0001) %MON dynstat_salt_min             =   1.5961183803121E+01
(PID.TID 0000.0001) %MON dynstat_salt_mean            =   3.4725605904056E+01
(PID.TID 0000.0001) %MON dynstat_salt_sd              =   3.7707698421763E-01
(PID.TID 0000.0001) %MON dynstat_salt_del2            =   3.0034218846913E-05
(PID.TID 0000.0001) %MON dynstat_sst_max              =   3.2520768958771E+01
(PID.TID 0000.0001) %MON dynstat_sst_min              =  -1.8697444800932E+00
(PID.TID 0000.0001) %MON dynstat_sst_mean             =   1.8489554126509E+01
(PID.TID 0000.0001) %MON dynstat_sst_sd               =   1.0120335318606E+01
(PID.TID 0000.0001) %MON dynstat_sst_del2             =   8.4594429158944E-04
(PID.TID 0000.0001) %MON dynstat_sss_max              =   3.9315495808527E+01
(PID.TID 0000.0001) %MON dynstat_sss_min              =   1.5961183803121E+01
(PID.TID 0000.0001) %MON dynstat_sss_mean             =   3.4688108369135E+01
(PID.TID 0000.0001) %MON dynstat_sss_sd               =   1.1304408195421E+00
(PID.TID 0000.0001) %MON dynstat_sss_del2             =   7.3915108841912E-04
(PID.TID 0000.0001) %MON forcing_qnet_max             =   2.2197590332031E+03
(PID.TID 0000.0001) %MON forcing_qnet_min             =  -7.2691099876455E+02
(PID.TID 0000.0001) %MON forcing_qnet_mean            =  -2.5242890765658E+01
(PID.TID 0000.0001) %MON forcing_qnet_sd              =   2.0941148344784E+02
(PID.TID 0000.0001) %MON forcing_qnet_del2            =   3.5451282311621E-01
(PID.TID 0000.0001) %MON forcing_qsw_max              =   0.0000000000000E+00
(PID.TID 0000.0001) %MON forcing_qsw_min              =  -1.0998376499881E+02
(PID.TID 0000.0001) %MON forcing_qsw_mean             =  -2.2688198334593E+01
(PID.TID 0000.0001) %MON forcing_qsw_sd               =   3.0393703029501E+01
(PID.TID 0000.0001) %MON forcing_qsw_del2             =   2.0427712061673E-02
(PID.TID 0000.0001) %MON forcing_empmr_max            =   1.4158800477162E-03
(PID.TID 0000.0001) %MON forcing_empmr_min            =  -6.9054163992405E-02
(PID.TID 0000.0001) %MON forcing_empmr_mean           =  -6.4759872845297E-06
(PID.TID 0000.0001) %MON forcing_empmr_sd             =   2.9752842381590E-04
(PID.TID 0000.0001) %MON forcing_empmr_del2           =   2.9620561116180E-06
(PID.TID 0000.0001) %MON forcing_fu_max               =   8.6092713475227E-01
(PID.TID 0000.0001) %MON forcing_fu_min               =  -1.3360039591789E+00
(PID.TID 0000.0001) %MON forcing_fu_mean              =   7.1167190482302E-03
(PID.TID 0000.0001) %MON forcing_fu_sd                =   1.0506558981737E-01
(PID.TID 0000.0001) %MON forcing_fu_del2              =   1.5505649274136E-04
(PID.TID 0000.0001) %MON forcing_fv_max               =   1.1490395665169E+00
(PID.TID 0000.0001) %MON forcing_fv_min               =  -1.1851343512535E+00
(PID.TID 0000.0001) %MON forcing_fv_mean              =  -9.4051207988299E-03
(PID.TID 0000.0001) %MON forcing_fv_sd                =   1.1001150214186E-01
(PID.TID 0000.0001) %MON forcing_fv_del2              =   1.4995618557012E-04
(PID.TID 0000.0001) %MON trAdv_CFL_u_max              =   2.2699707484225E-02
(PID.TID 0000.0001) %MON trAdv_CFL_v_max              =   2.4532976406671E-02
(PID.TID 0000.0001) %MON trAdv_CFL_w_max              =   1.2794395575461E-01
(PID.TID 0000.0001) %MON advcfl_uvel_max              =   2.1957090505690E-02
(PID.TID 0000.0001) %MON advcfl_vvel_max              =   2.3989601526797E-02
(PID.TID 0000.0001) %MON advcfl_wvel_max              =   1.3323381854135E-01
(PID.TID 0000.0001) %MON advcfl_W_hf_max              =   1.4051314283206E-01
(PID.TID 0000.0001) %MON pe_b_mean                    =   6.1259241263814E-04
(PID.TID 0000.0001) %MON ke_max                       =   1.0506495748124E+00
(PID.TID 0000.0001) %MON ke_mean                      =   4.4713844573429E-04
(PID.TID 0000.0001) %MON ke_vol                       =   1.3349971463029E+18
(PID.TID 0000.0001) %MON vort_r_min                   =  -3.5155644469045E-05
(PID.TID 0000.0001) %MON vort_r_max                   =   3.9425567427463E-05
(PID.TID 0000.0001) %MON vort_a_mean                  =  -1.9727864647440E-05
(PID.TID 0000.0001) %MON vort_a_sd                    =   7.4543129110979E-05
(PID.TID 0000.0001) %MON vort_p_mean                  =  -2.1760540599512E-05
(PID.TID 0000.0001) %MON vort_p_sd                    =   9.7245778677622E-05
(PID.TID 0000.0001) %MON surfExpan_theta_mean         =  -1.4244859931815E-06
(PID.TID 0000.0001) %MON surfExpan_salt_mean          =  -7.7439091783383E-08
(PID.TID 0000.0001) // =======================================================
(PID.TID 0000.0001) // End MONITOR dynamic field statistics
(PID.TID 0000.0001) // =======================================================
(PID.TID 0000.0001) // =======================================================
(PID.TID 0000.0001) // Begin MONITOR SEAICE statistics
(PID.TID 0000.0001) // =======================================================
(PID.TID 0000.0001) %MON seaice_tsnumber              =                   104
(PID.TID 0000.0001) %MON seaice_time_sec              =   9.3600000000000E+04
(PID.TID 0000.0001) %MON seaice_uice_max              =   4.0000000000000E-01
(PID.TID 0000.0001) %MON seaice_uice_min              =  -4.0000000000000E-01
(PID.TID 0000.0001) %MON seaice_uice_mean             =  -8.3054598624025E-03
(PID.TID 0000.0001) %MON seaice_uice_sd               =   1.9802383574176E-01
(PID.TID 0000.0001) %MON seaice_uice_del2             =   2.2931571122150E-04
(PID.TID 0000.0001) %MON seaice_vice_max              =   4.0000000000000E-01
(PID.TID 0000.0001) %MON seaice_vice_min              =  -4.0000000000000E-01
(PID.TID 0000.0001) %MON seaice_vice_mean             =  -2.1960776359499E-02
(PID.TID 0000.0001) %MON seaice_vice_sd               =   2.1302038025672E-01
(PID.TID 0000.0001) %MON seaice_vice_del2             =   2.3932563818061E-04
(PID.TID 0000.0001) %MON seaice_area_max              =   1.0000000000000E+00
(PID.TID 0000.0001) %MON seaice_area_min              =   0.0000000000000E+00
(PID.TID 0000.0001) %MON seaice_area_mean             =   6.9961025617535E-02
(PID.TID 0000.0001) %MON seaice_area_sd               =   2.3647912516546E-01
(PID.TID 0000.0001) %MON seaice_area_del2             =   4.6107589925973E-04
(PID.TID 0000.0001) %MON seaice_heff_max              =   2.5237669872586E+01
(PID.TID 0000.0001) %MON seaice_heff_min              =   0.0000000000000E+00
(PID.TID 0000.0001) %MON seaice_heff_mean             =   2.1654589489588E-01
(PID.TID 0000.0001) %MON seaice_heff_sd               =   1.0706947303171E+00
(PID.TID 0000.0001) %MON seaice_heff_del2             =   3.9106894605941E-03
(PID.TID 0000.0001) %MON seaice_hsnow_max             =   8.3355445524212E+00
(PID.TID 0000.0001) %MON seaice_hsnow_min             =   0.0000000000000E+00
(PID.TID 0000.0001) %MON seaice_hsnow_mean            =   2.4563732202295E-02
(PID.TID 0000.0001) %MON seaice_hsnow_sd              =   1.5779006324723E-01
(PID.TID 0000.0001) %MON seaice_hsnow_del2            =   1.2538003480501E-03
(PID.TID 0000.0001) // =======================================================
(PID.TID 0000.0001) // End MONITOR SEAICE statistics
(PID.TID 0000.0001) // =======================================================
 Computing Diagnostic #     86  oceQnet      Counter:       4   Parms: SM      U1      
 Computing Diagnostic #     87  oceQsw       Counter:       4   Parms: SM      U1      
 Computing Diagnostic #     84  oceFWflx     Counter:       4   Parms: SM      U1      
 Computing Diagnostic #     85  oceSflux     Counter:       4   Parms: SM      U1      
 Computing Diagnostic #     80  oceTAUX      Counter:       4   Parms: UU      U1      
           Vector  Mate for  oceTAUX      Diagnostic #     81  oceTAUY  exists 
 Computing Diagnostic #     81  oceTAUY      Counter:       4   Parms: VV      U1      
           Vector  Mate for  oceTAUY      Diagnostic #     80  oceTAUX  exists 
 Computing Diagnostic #     26  THETA        Counter:       4   Parms: SMR     MR      
 Computing Diagnostic #     27  SALT         Counter:       4   Parms: SMR     MR      
 Computing Diagnostic #     30  UVEL         Counter:       4   Parms: UUR     MR      
           Vector  Mate for  UVEL         Diagnostic #     31  VVEL     exists 
 Computing Diagnostic #     31  VVEL         Counter:       4   Parms: VVR     MR      
           Vector  Mate for  VVEL         Diagnostic #     30  UVEL     exists 
 Computing Diagnostic #    214  SIarea       Counter:       4   Parms: SM      M1      
 Computing Diagnostic #    217  SIheff       Counter:       4   Parms: SM      M1      
 Computing Diagnostic #    219  SIhsnow      Counter:       4   Parms: SM      M1      
 Computing Diagnostic #     83  sIceLoad     Counter:       4   Parms: SM      U1      
 Computing Diagnostic #    223  SIuice       Counter:       4   Parms: UU      M1      
           Vector  Mate for  SIuice       Diagnostic #    224  SIvice   exists 
 Computing Diagnostic #    224  SIvice       Counter:       4   Parms: VV      M1      
           Vector  Mate for  SIvice       Diagnostic #    223  SIuice   exists 
 Computing Diagnostic #    225  SItaux       Counter:       4   Parms: UU      U1      
           Vector  Mate for  SItaux       Diagnostic #    226  SItauy   exists 
 Computing Diagnostic #    226  SItauy       Counter:       4   Parms: VV      U1      
           Vector  Mate for  SItauy       Diagnostic #    225  SItaux   exists 
 Computing Diagnostic #    285  SIareaN      Counter:       4   Parms: SM      MX      
 Computing Diagnostic #    284  SIheffN      Counter:       4   Parms: SM      MX      
 Computing Diagnostic #    286  SIhsnowN     Counter:       4   Parms: SM      MX      
 Compute Stats, Diag. #    214  SIarea    vol(   0 ): 3.580E+14  Parms: SM      M1      
 Compute Stats, Diag. #    217  SIheff    vol(   0 ): 3.580E+14  Parms: SM      M1      
 Compute Stats, Diag. #    219  SIhsnow   vol(   0 ): 3.580E+14  Parms: SM      M1      
 Compute Stats, Diag. #     83  sIceLoad  vol(   0 ): 3.580E+14  Parms: SM      U1      
 Compute Stats, Diag. #    223  SIuice    vol(   0 ): 3.513E+14  Parms: UU      M1      
 Compute Stats, Diag. #    224  SIvice    vol(   0 ): 3.508E+14  Parms: VV      M1      
 Compute Stats, Diag. #    225  SItaux    vol(   0 ): 3.513E+14  Parms: UU      U1      
 Compute Stats, Diag. #    226  SItauy    vol(   0 ): 3.508E+14  Parms: VV      U1      
 cg2d: Sum(rhs),rhsMax =   6.41484660064037E+01  2.92245450475902E-01
 Compute Stats, Diag. #    214  SIarea    vol(   0 ): 3.580E+14  Parms: SM      M1      
 Compute Stats, Diag. #    217  SIheff    vol(   0 ): 3.580E+14  Parms: SM      M1      
 Compute Stats, Diag. #    219  SIhsnow   vol(   0 ): 3.580E+14  Parms: SM      M1      
 Compute Stats, Diag. #     83  sIceLoad  vol(   0 ): 3.580E+14  Parms: SM      U1      
 Compute Stats, Diag. #    223  SIuice    vol(   0 ): 3.513E+14  Parms: UU      M1      
 Compute Stats, Diag. #    224  SIvice    vol(   0 ): 3.508E+14  Parms: VV      M1      
 Compute Stats, Diag. #    225  SItaux    vol(   0 ): 3.513E+14  Parms: UU      U1      
 Compute Stats, Diag. #    226  SItauy    vol(   0 ): 3.508E+14  Parms: VV      U1      
 cg2d: Sum(rhs),rhsMax =   6.39758533996808E+01  2.91746852684462E-01
 Compute Stats, Diag. #    214  SIarea    vol(   0 ): 3.580E+14  Parms: SM      M1      
 Compute Stats, Diag. #    217  SIheff    vol(   0 ): 3.580E+14  Parms: SM      M1      
 Compute Stats, Diag. #    219  SIhsnow   vol(   0 ): 3.580E+14  Parms: SM      M1      
 Compute Stats, Diag. #     83  sIceLoad  vol(   0 ): 3.580E+14  Parms: SM      U1      
 Compute Stats, Diag. #    223  SIuice    vol(   0 ): 3.513E+14  Parms: UU      M1      
 Compute Stats, Diag. #    224  SIvice    vol(   0 ): 3.508E+14  Parms: VV      M1      
 Compute Stats, Diag. #    225  SItaux    vol(   0 ): 3.513E+14  Parms: UU      U1      
 Compute Stats, Diag. #    226  SItauy    vol(   0 ): 3.508E+14  Parms: VV      U1      
 cg2d: Sum(rhs),rhsMax =   6.38062193869963E+01  2.91319431736664E-01
 Compute Stats, Diag. #    214  SIarea    vol(   0 ): 3.580E+14  Parms: SM      M1      
 Compute Stats, Diag. #    217  SIheff    vol(   0 ): 3.580E+14  Parms: SM      M1      
 Compute Stats, Diag. #    219  SIhsnow   vol(   0 ): 3.580E+14  Parms: SM      M1      
 Compute Stats, Diag. #     83  sIceLoad  vol(   0 ): 3.580E+14  Parms: SM      U1      
 Compute Stats, Diag. #    223  SIuice    vol(   0 ): 3.513E+14  Parms: UU      M1      
 Compute Stats, Diag. #    224  SIvice    vol(   0 ): 3.508E+14  Parms: VV      M1      
 Compute Stats, Diag. #    225  SItaux    vol(   0 ): 3.513E+14  Parms: UU      U1      
 Compute Stats, Diag. #    226  SItauy    vol(   0 ): 3.508E+14  Parms: VV      U1      
 cg2d: Sum(rhs),rhsMax =   6.36469891651897E+01  2.90967943693947E-01
 Computing Diagnostic #     86  oceQnet      Counter:       4   Parms: SM      U1      
 Computing Diagnostic #     87  oceQsw       Counter:       4   Parms: SM      U1      
 Computing Diagnostic #     84  oceFWflx     Counter:       4   Parms: SM      U1      
 Computing Diagnostic #     85  oceSflux     Counter:       4   Parms: SM      U1      
 Computing Diagnostic #     80  oceTAUX      Counter:       4   Parms: UU      U1      
           Vector  Mate for  oceTAUX      Diagnostic #     81  oceTAUY  exists 
 Computing Diagnostic #     81  oceTAUY      Counter:       4   Parms: VV      U1      
           Vector  Mate for  oceTAUY      Diagnostic #     80  oceTAUX  exists 
 Computing Diagnostic #     26  THETA        Counter:       4   Parms: SMR     MR      
 Computing Diagnostic #     27  SALT         Counter:       4   Parms: SMR     MR      
 Computing Diagnostic #     30  UVEL         Counter:       4   Parms: UUR     MR      
           Vector  Mate for  UVEL         Diagnostic #     31  VVEL     exists 
 Computing Diagnostic #     31  VVEL         Counter:       4   Parms: VVR     MR      
           Vector  Mate for  VVEL         Diagnostic #     30  UVEL     exists 
 Computing Diagnostic #    214  SIarea       Counter:       4   Parms: SM      M1      
 Computing Diagnostic #    217  SIheff       Counter:       4   Parms: SM      M1      
 Computing Diagnostic #    219  SIhsnow      Counter:       4   Parms: SM      M1      
 Computing Diagnostic #     83  sIceLoad     Counter:       4   Parms: SM      U1      
 Computing Diagnostic #    223  SIuice       Counter:       4   Parms: UU      M1      
           Vector  Mate for  SIuice       Diagnostic #    224  SIvice   exists 
 Computing Diagnostic #    224  SIvice       Counter:       4   Parms: VV      M1      
           Vector  Mate for  SIvice       Diagnostic #    223  SIuice   exists 
 Computing Diagnostic #    225  SItaux       Counter:       4   Parms: UU      U1      
           Vector  Mate for  SItaux       Diagnostic #    226  SItauy   exists 
 Computing Diagnostic #    226  SItauy       Counter:       4   Parms: VV      U1      
           Vector  Mate for  SItauy       Diagnostic #    225  SItaux   exists 
 Computing Diagnostic #    285  SIareaN      Counter:       4   Parms: SM      MX      
 Computing Diagnostic #    284  SIheffN      Counter:       4   Parms: SM      MX      
 Computing Diagnostic #    286  SIhsnowN     Counter:       4   Parms: SM      MX      
 Compute Stats, Diag. #    214  SIarea    vol(   0 ): 3.580E+14  Parms: SM      M1      
 Compute Stats, Diag. #    217  SIheff    vol(   0 ): 3.580E+14  Parms: SM      M1      
 Compute Stats, Diag. #    219  SIhsnow   vol(   0 ): 3.580E+14  Parms: SM      M1      
 Compute Stats, Diag. #     83  sIceLoad  vol(   0 ): 3.580E+14  Parms: SM      U1      
 Compute Stats, Diag. #    223  SIuice    vol(   0 ): 3.513E+14  Parms: UU      M1      
 Compute Stats, Diag. #    224  SIvice    vol(   0 ): 3.508E+14  Parms: VV      M1      
 Compute Stats, Diag. #    225  SItaux    vol(   0 ): 3.513E+14  Parms: UU      U1      
 Compute Stats, Diag. #    226  SItauy    vol(   0 ): 3.508E+14  Parms: VV      U1      
 cg2d: Sum(rhs),rhsMax =   6.34826366893583E+01  2.90696862082704E-01
 Compute Stats, Diag. #    214  SIarea    vol(   0 ): 3.580E+14  Parms: SM      M1      
 Compute Stats, Diag. #    217  SIheff    vol(   0 ): 3.580E+14  Parms: SM      M1      
 Compute Stats, Diag. #    219  SIhsnow   vol(   0 ): 3.580E+14  Parms: SM      M1      
 Compute Stats, Diag. #     83  sIceLoad  vol(   0 ): 3.580E+14  Parms: SM      U1      
 Compute Stats, Diag. #    223  SIuice    vol(   0 ): 3.513E+14  Parms: UU      M1      
 Compute Stats, Diag. #    224  SIvice    vol(   0 ): 3.508E+14  Parms: VV      M1      
 Compute Stats, Diag. #    225  SItaux    vol(   0 ): 3.513E+14  Parms: UU      U1      
 Compute Stats, Diag. #    226  SItauy    vol(   0 ): 3.508E+14  Parms: VV      U1      
 cg2d: Sum(rhs),rhsMax =   6.33245865047897E+01  2.90507291614893E-01
 Compute Stats, Diag. #    214  SIarea    vol(   0 ): 3.580E+14  Parms: SM      M1      
 Compute Stats, Diag. #    217  SIheff    vol(   0 ): 3.580E+14  Parms: SM      M1      
 Compute Stats, Diag. #    219  SIhsnow   vol(   0 ): 3.580E+14  Parms: SM      M1      
 Compute Stats, Diag. #     83  sIceLoad  vol(   0 ): 3.580E+14  Parms: SM      U1      
 Compute Stats, Diag. #    223  SIuice    vol(   0 ): 3.513E+14  Parms: UU      M1      
 Compute Stats, Diag. #    224  SIvice    vol(   0 ): 3.508E+14  Parms: VV      M1      
 Compute Stats, Diag. #    225  SItaux    vol(   0 ): 3.513E+14  Parms: UU      U1      
 Compute Stats, Diag. #    226  SItauy    vol(   0 ): 3.508E+14  Parms: VV      U1      
 cg2d: Sum(rhs),rhsMax =   6.31679864935967E+01  2.90399463541827E-01
 Compute Stats, Diag. #    214  SIarea    vol(   0 ): 3.580E+14  Parms: SM      M1      
 Compute Stats, Diag. #    217  SIheff    vol(   0 ): 3.580E+14  Parms: SM      M1      
 Compute Stats, Diag. #    219  SIhsnow   vol(   0 ): 3.580E+14  Parms: SM      M1      
 Compute Stats, Diag. #     83  sIceLoad  vol(   0 ): 3.580E+14  Parms: SM      U1      
 Compute Stats, Diag. #    223  SIuice    vol(   0 ): 3.513E+14  Parms: UU      M1      
 Compute Stats, Diag. #    224  SIvice    vol(   0 ): 3.508E+14  Parms: VV      M1      
 Compute Stats, Diag. #    225  SItaux    vol(   0 ): 3.513E+14  Parms: UU      U1      
 Compute Stats, Diag. #    226  SItauy    vol(   0 ): 3.508E+14  Parms: VV      U1      
 cg2d: Sum(rhs),rhsMax =   6.30136087791455E+01  2.90372977887835E-01
(PID.TID 0000.0001)      cg2d_init_res =   2.53562589560180E-01
(PID.TID 0000.0001)      cg2d_iters(min,last) =      -1      30
(PID.TID 0000.0001)      cg2d_last_res =   2.16151423014848E-05
(PID.TID 0000.0001) // =======================================================
(PID.TID 0000.0001) // Begin MONITOR dynamic field statistics
(PID.TID 0000.0001) // =======================================================
(PID.TID 0000.0001) %MON time_tsnumber                =                   112
(PID.TID 0000.0001) %MON time_secondsf                =   1.0080000000000E+05
(PID.TID 0000.0001) %MON dynstat_eta_max              =   1.0713107922322E+00
(PID.TID 0000.0001) %MON dynstat_eta_min              =  -2.8395252966440E+00
(PID.TID 0000.0001) %MON dynstat_eta_mean             =  -1.9933216977975E-03
(PID.TID 0000.0001) %MON dynstat_eta_sd               =   6.8026846457248E-01
(PID.TID 0000.0001) %MON dynstat_eta_del2             =   7.7444843311683E-05
(PID.TID 0000.0001) %MON dynstat_uvel_max             =   8.5915505253667E-01
(PID.TID 0000.0001) %MON dynstat_uvel_min             =  -1.2207351963790E+00
(PID.TID 0000.0001) %MON dynstat_uvel_mean            =   8.2292811491573E-04
(PID.TID 0000.0001) %MON dynstat_uvel_sd              =   2.0859451426659E-02
(PID.TID 0000.0001) %MON dynstat_uvel_del2            =   1.2667929503296E-05
(PID.TID 0000.0001) %MON dynstat_vvel_max             =   1.3581310461233E+00
(PID.TID 0000.0001) %MON dynstat_vvel_min             =  -8.9125198002880E-01
(PID.TID 0000.0001) %MON dynstat_vvel_mean            =   1.3060756388887E-03
(PID.TID 0000.0001) %MON dynstat_vvel_sd              =   2.1944474341595E-02
(PID.TID 0000.0001) %MON dynstat_vvel_del2            =   1.2167817672892E-05
(PID.TID 0000.0001) %MON dynstat_wvel_max             =   4.1667692563109E-03
(PID.TID 0000.0001) %MON dynstat_wvel_min             =  -2.8594271361456E-03
(PID.TID 0000.0001) %MON dynstat_wvel_mean            =   3.1254625400728E-08
(PID.TID 0000.0001) %MON dynstat_wvel_sd              =   2.9586891080200E-05
(PID.TID 0000.0001) %MON dynstat_wvel_del2            =   4.6642924647156E-08
(PID.TID 0000.0001) %MON dynstat_theta_max            =   3.2547934593849E+01
(PID.TID 0000.0001) %MON dynstat_theta_min            =  -2.0421524366595E+00
(PID.TID 0000.0001) %MON dynstat_theta_mean           =   3.5905260816267E+00
(PID.TID 0000.0001) %MON dynstat_theta_sd             =   4.4363120464494E+00
(PID.TID 0000.0001) %MON dynstat_theta_del2           =   1.0300079787668E-04
(PID.TID 0000.0001) %MON dynstat_salt_max             =   4.0711533941288E+01
(PID.TID 0000.0001) %MON dynstat_salt_min             =   1.5468283025181E+01
(PID.TID 0000.0001) %MON dynstat_salt_mean            =   3.4725603095499E+01
(PID.TID 0000.0001) %MON dynstat_salt_sd              =   3.7706658053188E-01
(PID.TID 0000.0001) %MON dynstat_salt_del2            =   2.9995151303282E-05
(PID.TID 0000.0001) %MON dynstat_sst_max              =   3.2531528493997E+01
(PID.TID 0000.0001) %MON dynstat_sst_min              =  -1.8653959804642E+00
(PID.TID 0000.0001) %MON dynstat_sst_mean             =   1.8492165315141E+01
(PID.TID 0000.0001) %MON dynstat_sst_sd               =   1.0123774761079E+01
(PID.TID 0000.0001) %MON dynstat_sst_del2             =   8.4391145377594E-04
(PID.TID 0000.0001) %MON dynstat_sss_max              =   3.9298588407485E+01
(PID.TID 0000.0001) %MON dynstat_sss_min              =   1.5468283025181E+01
(PID.TID 0000.0001) %MON dynstat_sss_mean             =   3.4688772722109E+01
(PID.TID 0000.0001) %MON dynstat_sss_sd               =   1.1314171765473E+00
(PID.TID 0000.0001) %MON dynstat_sss_del2             =   7.4284708118370E-04
(PID.TID 0000.0001) %MON forcing_qnet_max             =   1.5379913330078E+03
(PID.TID 0000.0001) %MON forcing_qnet_min             =  -6.5564255768042E+02
(PID.TID 0000.0001) %MON forcing_qnet_mean            =  -1.4965684309057E+01
(PID.TID 0000.0001) %MON forcing_qnet_sd              =   2.0313800263079E+02
(PID.TID 0000.0001) %MON forcing_qnet_del2            =   3.5243697273537E-01
(PID.TID 0000.0001) %MON forcing_qsw_max              =   0.0000000000000E+00
(PID.TID 0000.0001) %MON forcing_qsw_min              =  -1.0884360221975E+02
(PID.TID 0000.0001) %MON forcing_qsw_mean             =  -2.1096774185223E+01
(PID.TID 0000.0001) %MON forcing_qsw_sd               =   2.9531878307605E+01
(PID.TID 0000.0001) %MON forcing_qsw_del2             =   2.1843046547720E-02
(PID.TID 0000.0001) %MON forcing_empmr_max            =   1.3418240705505E-03
(PID.TID 0000.0001) %MON forcing_empmr_min            =  -6.5975479781628E-02
(PID.TID 0000.0001) %MON forcing_empmr_mean           =  -5.5834227805742E-06
(PID.TID 0000.0001) %MON forcing_empmr_sd             =   2.8293810239493E-04
(PID.TID 0000.0001) %MON forcing_empmr_del2           =   2.8077284420491E-06
(PID.TID 0000.0001) %MON forcing_fu_max               =   8.1984180212021E-01
(PID.TID 0000.0001) %MON forcing_fu_min               =  -1.3461426496506E+00
(PID.TID 0000.0001) %MON forcing_fu_mean              =   6.6492276161488E-03
(PID.TID 0000.0001) %MON forcing_fu_sd                =   1.0531254124502E-01
(PID.TID 0000.0001) %MON forcing_fu_del2              =   1.5789314347796E-04
(PID.TID 0000.0001) %MON forcing_fv_max               =   1.2303661704063E+00
(PID.TID 0000.0001) %MON forcing_fv_min               =  -1.2329720258713E+00
(PID.TID 0000.0001) %MON forcing_fv_mean              =  -9.3601786355496E-03
(PID.TID 0000.0001) %MON forcing_fv_sd                =   1.1062809824245E-01
(PID.TID 0000.0001) %MON forcing_fv_del2              =   1.5302541711509E-04
(PID.TID 0000.0001) %MON trAdv_CFL_u_max              =   2.2036445909857E-02
(PID.TID 0000.0001) %MON trAdv_CFL_v_max              =   2.4389993413971E-02
(PID.TID 0000.0001) %MON trAdv_CFL_w_max              =   1.3650801976936E-01
(PID.TID 0000.0001) %MON advcfl_uvel_max              =   2.0239204252428E-02
(PID.TID 0000.0001) %MON advcfl_vvel_max              =   2.4108054049717E-02
(PID.TID 0000.0001) %MON advcfl_wvel_max              =   1.4237504485673E-01
(PID.TID 0000.0001) %MON advcfl_W_hf_max              =   1.5019909690637E-01
(PID.TID 0000.0001) %MON pe_b_mean                    =   6.0872749319545E-04
(PID.TID 0000.0001) %MON ke_max                       =   1.0462013955764E+00
(PID.TID 0000.0001) %MON ke_mean                      =   4.4316509306877E-04
(PID.TID 0000.0001) %MON ke_vol                       =   1.3349971615541E+18
(PID.TID 0000.0001) %MON vort_r_min                   =  -3.4126206368135E-05
(PID.TID 0000.0001) %MON vort_r_max                   =   3.9467836094302E-05
(PID.TID 0000.0001) %MON vort_a_mean                  =  -1.9727864647440E-05
(PID.TID 0000.0001) %MON vort_a_sd                    =   7.4543086385197E-05
(PID.TID 0000.0001) %MON vort_p_mean                  =  -2.1760540271208E-05
(PID.TID 0000.0001) %MON vort_p_sd                    =   9.7246068349201E-05
(PID.TID 0000.0001) %MON surfExpan_theta_mean         =  -8.2147843344171E-07
(PID.TID 0000.0001) %MON surfExpan_salt_mean          =  -5.8093117628070E-08
(PID.TID 0000.0001) // =======================================================
(PID.TID 0000.0001) // End MONITOR dynamic field statistics
(PID.TID 0000.0001) // =======================================================
(PID.TID 0000.0001) // =======================================================
(PID.TID 0000.0001) // Begin MONITOR SEAICE statistics
(PID.TID 0000.0001) // =======================================================
(PID.TID 0000.0001) %MON seaice_tsnumber              =                   112
(PID.TID 0000.0001) %MON seaice_time_sec              =   1.0080000000000E+05
(PID.TID 0000.0001) %MON seaice_uice_max              =   4.0000000000000E-01
(PID.TID 0000.0001) %MON seaice_uice_min              =  -4.0000000000000E-01
(PID.TID 0000.0001) %MON seaice_uice_mean             =  -8.3054598624025E-03
(PID.TID 0000.0001) %MON seaice_uice_sd               =   1.9802383574176E-01
(PID.TID 0000.0001) %MON seaice_uice_del2             =   2.2931571122150E-04
(PID.TID 0000.0001) %MON seaice_vice_max              =   4.0000000000000E-01
(PID.TID 0000.0001) %MON seaice_vice_min              =  -4.0000000000000E-01
(PID.TID 0000.0001) %MON seaice_vice_mean             =  -2.1960776359499E-02
(PID.TID 0000.0001) %MON seaice_vice_sd               =   2.1302038025672E-01
(PID.TID 0000.0001) %MON seaice_vice_del2             =   2.3932563818061E-04
(PID.TID 0000.0001) %MON seaice_area_max              =   1.0000000000000E+00
(PID.TID 0000.0001) %MON seaice_area_min              =   0.0000000000000E+00
(PID.TID 0000.0001) %MON seaice_area_mean             =   6.9837985503350E-02
(PID.TID 0000.0001) %MON seaice_area_sd               =   2.3635316756325E-01
(PID.TID 0000.0001) %MON seaice_area_del2             =   4.5998574415107E-04
(PID.TID 0000.0001) %MON seaice_heff_max              =   2.5234132655431E+01
(PID.TID 0000.0001) %MON seaice_heff_min              =   0.0000000000000E+00
(PID.TID 0000.0001) %MON seaice_heff_mean             =   2.1648388024102E-01
(PID.TID 0000.0001) %MON seaice_heff_sd               =   1.0706981643989E+00
(PID.TID 0000.0001) %MON seaice_heff_del2             =   3.9096917456879E-03
(PID.TID 0000.0001) %MON seaice_hsnow_max             =   8.3343818521535E+00
(PID.TID 0000.0001) %MON seaice_hsnow_min             =   0.0000000000000E+00
(PID.TID 0000.0001) %MON seaice_hsnow_mean            =   2.4548957394506E-02
(PID.TID 0000.0001) %MON seaice_hsnow_sd              =   1.5775892147018E-01
(PID.TID 0000.0001) %MON seaice_hsnow_del2            =   1.2535356170608E-03
(PID.TID 0000.0001) // =======================================================
(PID.TID 0000.0001) // End MONITOR SEAICE statistics
(PID.TID 0000.0001) // =======================================================
 Computing Diagnostic #     86  oceQnet      Counter:       4   Parms: SM      U1      
 Computing Diagnostic #     87  oceQsw       Counter:       4   Parms: SM      U1      
 Computing Diagnostic #     84  oceFWflx     Counter:       4   Parms: SM      U1      
 Computing Diagnostic #     85  oceSflux     Counter:       4   Parms: SM      U1      
 Computing Diagnostic #     80  oceTAUX      Counter:       4   Parms: UU      U1      
           Vector  Mate for  oceTAUX      Diagnostic #     81  oceTAUY  exists 
 Computing Diagnostic #     81  oceTAUY      Counter:       4   Parms: VV      U1      
           Vector  Mate for  oceTAUY      Diagnostic #     80  oceTAUX  exists 
 Computing Diagnostic #     26  THETA        Counter:       4   Parms: SMR     MR      
 Computing Diagnostic #     27  SALT         Counter:       4   Parms: SMR     MR      
 Computing Diagnostic #     30  UVEL         Counter:       4   Parms: UUR     MR      
           Vector  Mate for  UVEL         Diagnostic #     31  VVEL     exists 
 Computing Diagnostic #     31  VVEL         Counter:       4   Parms: VVR     MR      
           Vector  Mate for  VVEL         Diagnostic #     30  UVEL     exists 
 Computing Diagnostic #    214  SIarea       Counter:       4   Parms: SM      M1      
 Computing Diagnostic #    217  SIheff       Counter:       4   Parms: SM      M1      
 Computing Diagnostic #    219  SIhsnow      Counter:       4   Parms: SM      M1      
 Computing Diagnostic #     83  sIceLoad     Counter:       4   Parms: SM      U1      
 Computing Diagnostic #    223  SIuice       Counter:       4   Parms: UU      M1      
           Vector  Mate for  SIuice       Diagnostic #    224  SIvice   exists 
 Computing Diagnostic #    224  SIvice       Counter:       4   Parms: VV      M1      
           Vector  Mate for  SIvice       Diagnostic #    223  SIuice   exists 
 Computing Diagnostic #    225  SItaux       Counter:       4   Parms: UU      U1      
           Vector  Mate for  SItaux       Diagnostic #    226  SItauy   exists 
 Computing Diagnostic #    226  SItauy       Counter:       4   Parms: VV      U1      
           Vector  Mate for  SItauy       Diagnostic #    225  SItaux   exists 
 Computing Diagnostic #    285  SIareaN      Counter:       4   Parms: SM      MX      
 Computing Diagnostic #    284  SIheffN      Counter:       4   Parms: SM      MX      
 Computing Diagnostic #    286  SIhsnowN     Counter:       4   Parms: SM      MX      
 Compute Stats, Diag. #    214  SIarea    vol(   0 ): 3.580E+14  Parms: SM      M1      
 Compute Stats, Diag. #    217  SIheff    vol(   0 ): 3.580E+14  Parms: SM      M1      
 Compute Stats, Diag. #    219  SIhsnow   vol(   0 ): 3.580E+14  Parms: SM      M1      
 Compute Stats, Diag. #     83  sIceLoad  vol(   0 ): 3.580E+14  Parms: SM      U1      
 Compute Stats, Diag. #    223  SIuice    vol(   0 ): 3.513E+14  Parms: UU      M1      
 Compute Stats, Diag. #    224  SIvice    vol(   0 ): 3.508E+14  Parms: VV      M1      
 Compute Stats, Diag. #    225  SItaux    vol(   0 ): 3.513E+14  Parms: UU      U1      
 Compute Stats, Diag. #    226  SItauy    vol(   0 ): 3.508E+14  Parms: VV      U1      
 cg2d: Sum(rhs),rhsMax =   6.28548888052759E+01  2.90548626472838E-01
 Compute Stats, Diag. #    214  SIarea    vol(   0 ): 3.580E+14  Parms: SM      M1      
 Compute Stats, Diag. #    217  SIheff    vol(   0 ): 3.580E+14  Parms: SM      M1      
 Compute Stats, Diag. #    219  SIhsnow   vol(   0 ): 3.580E+14  Parms: SM      M1      
 Compute Stats, Diag. #     83  sIceLoad  vol(   0 ): 3.580E+14  Parms: SM      U1      
 Compute Stats, Diag. #    223  SIuice    vol(   0 ): 3.513E+14  Parms: UU      M1      
 Compute Stats, Diag. #    224  SIvice    vol(   0 ): 3.508E+14  Parms: VV      M1      
 Compute Stats, Diag. #    225  SItaux    vol(   0 ): 3.513E+14  Parms: UU      U1      
 Compute Stats, Diag. #    226  SItauy    vol(   0 ): 3.508E+14  Parms: VV      U1      
 cg2d: Sum(rhs),rhsMax =   6.27048532491207E+01  2.90818116454638E-01
 Compute Stats, Diag. #    214  SIarea    vol(   0 ): 3.580E+14  Parms: SM      M1      
 Compute Stats, Diag. #    217  SIheff    vol(   0 ): 3.580E+14  Parms: SM      M1      
 Compute Stats, Diag. #    219  SIhsnow   vol(   0 ): 3.580E+14  Parms: SM      M1      
 Compute Stats, Diag. #     83  sIceLoad  vol(   0 ): 3.580E+14  Parms: SM      U1      
 Compute Stats, Diag. #    223  SIuice    vol(   0 ): 3.513E+14  Parms: UU      M1      
 Compute Stats, Diag. #    224  SIvice    vol(   0 ): 3.508E+14  Parms: VV      M1      
 Compute Stats, Diag. #    225  SItaux    vol(   0 ): 3.513E+14  Parms: UU      U1      
 Compute Stats, Diag. #    226  SItauy    vol(   0 ): 3.508E+14  Parms: VV      U1      
 cg2d: Sum(rhs),rhsMax =   6.25544859345477E+01  2.91135444029613E-01
 Compute Stats, Diag. #    214  SIarea    vol(   0 ): 3.580E+14  Parms: SM      M1      
 Compute Stats, Diag. #    217  SIheff    vol(   0 ): 3.580E+14  Parms: SM      M1      
 Compute Stats, Diag. #    219  SIhsnow   vol(   0 ): 3.580E+14  Parms: SM      M1      
 Compute Stats, Diag. #     83  sIceLoad  vol(   0 ): 3.580E+14  Parms: SM      U1      
 Compute Stats, Diag. #    223  SIuice    vol(   0 ): 3.513E+14  Parms: UU      M1      
 Compute Stats, Diag. #    224  SIvice    vol(   0 ): 3.508E+14  Parms: VV      M1      
 Compute Stats, Diag. #    225  SItaux    vol(   0 ): 3.513E+14  Parms: UU      U1      
 Compute Stats, Diag. #    226  SItauy    vol(   0 ): 3.508E+14  Parms: VV      U1      
 cg2d: Sum(rhs),rhsMax =   6.23992879960350E+01  2.91493179488808E-01
 Computing Diagnostic #     86  oceQnet      Counter:       4   Parms: SM      U1      
 Computing Diagnostic #     87  oceQsw       Counter:       4   Parms: SM      U1      
 Computing Diagnostic #     84  oceFWflx     Counter:       4   Parms: SM      U1      
 Computing Diagnostic #     85  oceSflux     Counter:       4   Parms: SM      U1      
 Computing Diagnostic #     80  oceTAUX      Counter:       4   Parms: UU      U1      
           Vector  Mate for  oceTAUX      Diagnostic #     81  oceTAUY  exists 
 Computing Diagnostic #     81  oceTAUY      Counter:       4   Parms: VV      U1      
           Vector  Mate for  oceTAUY      Diagnostic #     80  oceTAUX  exists 
 Computing Diagnostic #     26  THETA        Counter:       4   Parms: SMR     MR      
 Computing Diagnostic #     27  SALT         Counter:       4   Parms: SMR     MR      
 Computing Diagnostic #     30  UVEL         Counter:       4   Parms: UUR     MR      
           Vector  Mate for  UVEL         Diagnostic #     31  VVEL     exists 
 Computing Diagnostic #     31  VVEL         Counter:       4   Parms: VVR     MR      
           Vector  Mate for  VVEL         Diagnostic #     30  UVEL     exists 
 Computing Diagnostic #    214  SIarea       Counter:       4   Parms: SM      M1      
 Computing Diagnostic #    217  SIheff       Counter:       4   Parms: SM      M1      
 Computing Diagnostic #    219  SIhsnow      Counter:       4   Parms: SM      M1      
 Computing Diagnostic #     83  sIceLoad     Counter:       4   Parms: SM      U1      
 Computing Diagnostic #    223  SIuice       Counter:       4   Parms: UU      M1      
           Vector  Mate for  SIuice       Diagnostic #    224  SIvice   exists 
 Computing Diagnostic #    224  SIvice       Counter:       4   Parms: VV      M1      
           Vector  Mate for  SIvice       Diagnostic #    223  SIuice   exists 
 Computing Diagnostic #    225  SItaux       Counter:       4   Parms: UU      U1      
           Vector  Mate for  SItaux       Diagnostic #    226  SItauy   exists 
 Computing Diagnostic #    226  SItauy       Counter:       4   Parms: VV      U1      
           Vector  Mate for  SItauy       Diagnostic #    225  SItaux   exists 
 Computing Diagnostic #    285  SIareaN      Counter:       4   Parms: SM      MX      
 Computing Diagnostic #    284  SIheffN      Counter:       4   Parms: SM      MX      
 Computing Diagnostic #    286  SIhsnowN     Counter:       4   Parms: SM      MX      
 Compute Stats, Diag. #    214  SIarea    vol(   0 ): 3.580E+14  Parms: SM      M1      
 Compute Stats, Diag. #    217  SIheff    vol(   0 ): 3.580E+14  Parms: SM      M1      
 Compute Stats, Diag. #    219  SIhsnow   vol(   0 ): 3.580E+14  Parms: SM      M1      
 Compute Stats, Diag. #     83  sIceLoad  vol(   0 ): 3.580E+14  Parms: SM      U1      
 Compute Stats, Diag. #    223  SIuice    vol(   0 ): 3.513E+14  Parms: UU      M1      
 Compute Stats, Diag. #    224  SIvice    vol(   0 ): 3.508E+14  Parms: VV      M1      
 Compute Stats, Diag. #    225  SItaux    vol(   0 ): 3.513E+14  Parms: UU      U1      
 Compute Stats, Diag. #    226  SItauy    vol(   0 ): 3.508E+14  Parms: VV      U1      
 cg2d: Sum(rhs),rhsMax =   6.22414869363482E+01  2.91884244312802E-01
 Compute Stats, Diag. #    214  SIarea    vol(   0 ): 3.580E+14  Parms: SM      M1      
 Compute Stats, Diag. #    217  SIheff    vol(   0 ): 3.580E+14  Parms: SM      M1      
 Compute Stats, Diag. #    219  SIhsnow   vol(   0 ): 3.580E+14  Parms: SM      M1      
 Compute Stats, Diag. #     83  sIceLoad  vol(   0 ): 3.580E+14  Parms: SM      U1      
 Compute Stats, Diag. #    223  SIuice    vol(   0 ): 3.513E+14  Parms: UU      M1      
 Compute Stats, Diag. #    224  SIvice    vol(   0 ): 3.508E+14  Parms: VV      M1      
 Compute Stats, Diag. #    225  SItaux    vol(   0 ): 3.513E+14  Parms: UU      U1      
 Compute Stats, Diag. #    226  SItauy    vol(   0 ): 3.508E+14  Parms: VV      U1      
 cg2d: Sum(rhs),rhsMax =   6.20889947237226E+01  2.92301105516247E-01
 Compute Stats, Diag. #    214  SIarea    vol(   0 ): 3.580E+14  Parms: SM      M1      
 Compute Stats, Diag. #    217  SIheff    vol(   0 ): 3.580E+14  Parms: SM      M1      
 Compute Stats, Diag. #    219  SIhsnow   vol(   0 ): 3.580E+14  Parms: SM      M1      
 Compute Stats, Diag. #     83  sIceLoad  vol(   0 ): 3.580E+14  Parms: SM      U1      
 Compute Stats, Diag. #    223  SIuice    vol(   0 ): 3.513E+14  Parms: UU      M1      
 Compute Stats, Diag. #    224  SIvice    vol(   0 ): 3.508E+14  Parms: VV      M1      
 Compute Stats, Diag. #    225  SItaux    vol(   0 ): 3.513E+14  Parms: UU      U1      
 Compute Stats, Diag. #    226  SItauy    vol(   0 ): 3.508E+14  Parms: VV      U1      
 cg2d: Sum(rhs),rhsMax =   6.19336447356682E+01  2.92736107018107E-01
 Compute Stats, Diag. #    214  SIarea    vol(   0 ): 3.580E+14  Parms: SM      M1      
 Compute Stats, Diag. #    217  SIheff    vol(   0 ): 3.580E+14  Parms: SM      M1      
 Compute Stats, Diag. #    219  SIhsnow   vol(   0 ): 3.580E+14  Parms: SM      M1      
 Compute Stats, Diag. #     83  sIceLoad  vol(   0 ): 3.580E+14  Parms: SM      U1      
 Compute Stats, Diag. #    223  SIuice    vol(   0 ): 3.513E+14  Parms: UU      M1      
 Compute Stats, Diag. #    224  SIvice    vol(   0 ): 3.508E+14  Parms: VV      M1      
 Compute Stats, Diag. #    225  SItaux    vol(   0 ): 3.513E+14  Parms: UU      U1      
 Compute Stats, Diag. #    226  SItauy    vol(   0 ): 3.508E+14  Parms: VV      U1      
 cg2d: Sum(rhs),rhsMax =   6.17783491532132E+01  2.93182111575292E-01
(PID.TID 0000.0001)      cg2d_init_res =   2.26949876202986E-01
(PID.TID 0000.0001)      cg2d_iters(min,last) =      -1      28
(PID.TID 0000.0001)      cg2d_last_res =   2.37135432117492E-05
(PID.TID 0000.0001) // =======================================================
(PID.TID 0000.0001) // Begin MONITOR dynamic field statistics
(PID.TID 0000.0001) // =======================================================
(PID.TID 0000.0001) %MON time_tsnumber                =                   120
(PID.TID 0000.0001) %MON time_secondsf                =   1.0800000000000E+05
(PID.TID 0000.0001) %MON dynstat_eta_max              =   1.0800201469014E+00
(PID.TID 0000.0001) %MON dynstat_eta_min              =  -2.7503910687520E+00
(PID.TID 0000.0001) %MON dynstat_eta_mean             =  -1.9542464906717E-03
(PID.TID 0000.0001) %MON dynstat_eta_sd               =   6.7884309130595E-01
(PID.TID 0000.0001) %MON dynstat_eta_del2             =   7.6307029202795E-05
(PID.TID 0000.0001) %MON dynstat_uvel_max             =   7.5699630109035E-01
(PID.TID 0000.0001) %MON dynstat_uvel_min             =  -1.2212684719272E+00
(PID.TID 0000.0001) %MON dynstat_uvel_mean            =   7.9560462970409E-04
(PID.TID 0000.0001) %MON dynstat_uvel_sd              =   2.0793069471068E-02
(PID.TID 0000.0001) %MON dynstat_uvel_del2            =   1.2379418691159E-05
(PID.TID 0000.0001) %MON dynstat_vvel_max             =   1.3649643172073E+00
(PID.TID 0000.0001) %MON dynstat_vvel_min             =  -8.8659287932254E-01
(PID.TID 0000.0001) %MON dynstat_vvel_mean            =   1.2710489593019E-03
(PID.TID 0000.0001) %MON dynstat_vvel_sd              =   2.1909989130083E-02
(PID.TID 0000.0001) %MON dynstat_vvel_del2            =   1.1898617585014E-05
(PID.TID 0000.0001) %MON dynstat_wvel_max             =   4.2284646407524E-03
(PID.TID 0000.0001) %MON dynstat_wvel_min             =  -2.8881511233975E-03
(PID.TID 0000.0001) %MON dynstat_wvel_mean            =   4.4109933201399E-08
(PID.TID 0000.0001) %MON dynstat_wvel_sd              =   2.9027649212064E-05
(PID.TID 0000.0001) %MON dynstat_wvel_del2            =   4.4817743630641E-08
(PID.TID 0000.0001) %MON dynstat_theta_max            =   3.2548385247650E+01
(PID.TID 0000.0001) %MON dynstat_theta_min            =  -2.0420886590858E+00
(PID.TID 0000.0001) %MON dynstat_theta_mean           =   3.5905272975043E+00
(PID.TID 0000.0001) %MON dynstat_theta_sd             =   4.4363349048838E+00
(PID.TID 0000.0001) %MON dynstat_theta_del2           =   1.0262122555081E-04
(PID.TID 0000.0001) %MON dynstat_salt_max             =   4.0711535321318E+01
(PID.TID 0000.0001) %MON dynstat_salt_min             =   1.5003855105084E+01
(PID.TID 0000.0001) %MON dynstat_salt_mean            =   3.4725600582447E+01
(PID.TID 0000.0001) %MON dynstat_salt_sd              =   3.7705724567597E-01
(PID.TID 0000.0001) %MON dynstat_salt_del2            =   3.0008249389379E-05
(PID.TID 0000.0001) %MON dynstat_sst_max              =   3.2548385247650E+01
(PID.TID 0000.0001) %MON dynstat_sst_min              =  -1.8614678896244E+00
(PID.TID 0000.0001) %MON dynstat_sst_mean             =   1.8492469322959E+01
(PID.TID 0000.0001) %MON dynstat_sst_sd               =   1.0126074574289E+01
(PID.TID 0000.0001) %MON dynstat_sst_del2             =   8.4209040538337E-04
(PID.TID 0000.0001) %MON dynstat_sss_max              =   3.9282464056689E+01
(PID.TID 0000.0001) %MON dynstat_sss_min              =   1.5003855105084E+01
(PID.TID 0000.0001) %MON dynstat_sss_mean             =   3.4689439884765E+01
(PID.TID 0000.0001) %MON dynstat_sss_sd               =   1.1324537528352E+00
(PID.TID 0000.0001) %MON dynstat_sss_del2             =   7.4915909236580E-04
(PID.TID 0000.0001) %MON forcing_qnet_max             =   3.7924321289062E+03
(PID.TID 0000.0001) %MON forcing_qnet_min             =  -7.0404492237871E+02
(PID.TID 0000.0001) %MON forcing_qnet_mean            =   5.9338134375237E+00
(PID.TID 0000.0001) %MON forcing_qnet_sd              =   1.8920347963844E+02
(PID.TID 0000.0001) %MON forcing_qnet_del2            =   4.3256784446263E-01
(PID.TID 0000.0001) %MON forcing_qsw_max              =   0.0000000000000E+00
(PID.TID 0000.0001) %MON forcing_qsw_min              =  -1.1145158057929E+02
(PID.TID 0000.0001) %MON forcing_qsw_mean             =  -1.8494687243632E+01
(PID.TID 0000.0001) %MON forcing_qsw_sd               =   2.7152873887362E+01
(PID.TID 0000.0001) %MON forcing_qsw_del2             =   2.2568794516215E-02
(PID.TID 0000.0001) %MON forcing_empmr_max            =   2.1998428273946E-03
(PID.TID 0000.0001) %MON forcing_empmr_min            =  -6.6962592303753E-02
(PID.TID 0000.0001) %MON forcing_empmr_mean           =  -5.6166195739333E-06
(PID.TID 0000.0001) %MON forcing_empmr_sd             =   2.8588176939718E-04
(PID.TID 0000.0001) %MON forcing_empmr_del2           =   2.9193876376560E-06
(PID.TID 0000.0001) %MON forcing_fu_max               =   8.2514366507530E-01
(PID.TID 0000.0001) %MON forcing_fu_min               =  -1.2798960208893E+00
(PID.TID 0000.0001) %MON forcing_fu_mean              =   6.6904768410402E-03
(PID.TID 0000.0001) %MON forcing_fu_sd                =   1.0560551815392E-01
(PID.TID 0000.0001) %MON forcing_fu_del2              =   1.5959669156109E-04
(PID.TID 0000.0001) %MON forcing_fv_max               =   1.2774096727371E+00
(PID.TID 0000.0001) %MON forcing_fv_min               =  -1.2503190636635E+00
(PID.TID 0000.0001) %MON forcing_fv_mean              =  -9.7082571332365E-03
(PID.TID 0000.0001) %MON forcing_fv_sd                =   1.1156453296391E-01
(PID.TID 0000.0001) %MON forcing_fv_del2              =   1.5482316789586E-04
(PID.TID 0000.0001) %MON trAdv_CFL_u_max              =   2.1267506130012E-02
(PID.TID 0000.0001) %MON trAdv_CFL_v_max              =   2.3154757635197E-02
(PID.TID 0000.0001) %MON trAdv_CFL_w_max              =   1.3871153839604E-01
(PID.TID 0000.0001) %MON advcfl_uvel_max              =   2.0205783621283E-02
(PID.TID 0000.0001) %MON advcfl_vvel_max              =   2.4229350789896E-02
(PID.TID 0000.0001) %MON advcfl_wvel_max              =   1.4521993425709E-01
(PID.TID 0000.0001) %MON advcfl_W_hf_max              =   1.5312406517436E-01
(PID.TID 0000.0001) %MON pe_b_mean                    =   6.0617903281664E-04
(PID.TID 0000.0001) %MON ke_max                       =   1.0416071650828E+00
(PID.TID 0000.0001) %MON ke_mean                      =   4.4103792706493E-04
(PID.TID 0000.0001) %MON ke_vol                       =   1.3349971755332E+18
(PID.TID 0000.0001) %MON vort_r_min                   =  -3.3904277378839E-05
(PID.TID 0000.0001) %MON vort_r_max                   =   3.9493606724571E-05
(PID.TID 0000.0001) %MON vort_a_mean                  =  -1.9727864647440E-05
(PID.TID 0000.0001) %MON vort_a_sd                    =   7.4543054940915E-05
(PID.TID 0000.0001) %MON vort_p_mean                  =  -2.1760540208928E-05
(PID.TID 0000.0001) %MON vort_p_sd                    =   9.7246258186001E-05
(PID.TID 0000.0001) %MON surfExpan_theta_mean         =  -5.1465338785828E-08
(PID.TID 0000.0001) %MON surfExpan_salt_mean          =  -3.1596171085941E-08
(PID.TID 0000.0001) // =======================================================
(PID.TID 0000.0001) // End MONITOR dynamic field statistics
(PID.TID 0000.0001) // =======================================================
(PID.TID 0000.0001) // =======================================================
(PID.TID 0000.0001) // Begin MONITOR SEAICE statistics
(PID.TID 0000.0001) // =======================================================
(PID.TID 0000.0001) %MON seaice_tsnumber              =                   120
(PID.TID 0000.0001) %MON seaice_time_sec              =   1.0800000000000E+05
(PID.TID 0000.0001) %MON seaice_uice_max              =   4.0000000000000E-01
(PID.TID 0000.0001) %MON seaice_uice_min              =  -4.0000000000000E-01
(PID.TID 0000.0001) %MON seaice_uice_mean             =  -8.3054598624025E-03
(PID.TID 0000.0001) %MON seaice_uice_sd               =   1.9802383574176E-01
(PID.TID 0000.0001) %MON seaice_uice_del2             =   2.2931571122150E-04
(PID.TID 0000.0001) %MON seaice_vice_max              =   4.0000000000000E-01
(PID.TID 0000.0001) %MON seaice_vice_min              =  -4.0000000000000E-01
(PID.TID 0000.0001) %MON seaice_vice_mean             =  -2.1960776359499E-02
(PID.TID 0000.0001) %MON seaice_vice_sd               =   2.1302038025672E-01
(PID.TID 0000.0001) %MON seaice_vice_del2             =   2.3932563818061E-04
(PID.TID 0000.0001) %MON seaice_area_max              =   1.0000000000000E+00
(PID.TID 0000.0001) %MON seaice_area_min              =   0.0000000000000E+00
(PID.TID 0000.0001) %MON seaice_area_mean             =   6.9717294213939E-02
(PID.TID 0000.0001) %MON seaice_area_sd               =   2.3622069500552E-01
(PID.TID 0000.0001) %MON seaice_area_del2             =   4.5878804177239E-04
(PID.TID 0000.0001) %MON seaice_heff_max              =   2.5230641715927E+01
(PID.TID 0000.0001) %MON seaice_heff_min              =   0.0000000000000E+00
(PID.TID 0000.0001) %MON seaice_heff_mean             =   2.1641831537747E-01
(PID.TID 0000.0001) %MON seaice_heff_sd               =   1.0706806772480E+00
(PID.TID 0000.0001) %MON seaice_heff_del2             =   3.9087054507434E-03
(PID.TID 0000.0001) %MON seaice_hsnow_max             =   8.3332336249005E+00
(PID.TID 0000.0001) %MON seaice_hsnow_min             =   0.0000000000000E+00
(PID.TID 0000.0001) %MON seaice_hsnow_mean            =   2.4533209105057E-02
(PID.TID 0000.0001) %MON seaice_hsnow_sd              =   1.5772922616248E-01
(PID.TID 0000.0001) %MON seaice_hsnow_del2            =   1.2532793169020E-03
(PID.TID 0000.0001) // =======================================================
(PID.TID 0000.0001) // End MONITOR SEAICE statistics
(PID.TID 0000.0001) // =======================================================
 Computing Diagnostic #     86  oceQnet      Counter:       4   Parms: SM      U1      
 Computing Diagnostic #     87  oceQsw       Counter:       4   Parms: SM      U1      
 Computing Diagnostic #     84  oceFWflx     Counter:       4   Parms: SM      U1      
 Computing Diagnostic #     85  oceSflux     Counter:       4   Parms: SM      U1      
 Computing Diagnostic #     80  oceTAUX      Counter:       4   Parms: UU      U1      
           Vector  Mate for  oceTAUX      Diagnostic #     81  oceTAUY  exists 
 Computing Diagnostic #     81  oceTAUY      Counter:       4   Parms: VV      U1      
           Vector  Mate for  oceTAUY      Diagnostic #     80  oceTAUX  exists 
 Computing Diagnostic #     26  THETA        Counter:       4   Parms: SMR     MR      
 Computing Diagnostic #     27  SALT         Counter:       4   Parms: SMR     MR      
 Computing Diagnostic #     30  UVEL         Counter:       4   Parms: UUR     MR      
           Vector  Mate for  UVEL         Diagnostic #     31  VVEL     exists 
 Computing Diagnostic #     31  VVEL         Counter:       4   Parms: VVR     MR      
           Vector  Mate for  VVEL         Diagnostic #     30  UVEL     exists 
 Computing Diagnostic #    214  SIarea       Counter:       4   Parms: SM      M1      
 Computing Diagnostic #    217  SIheff       Counter:       4   Parms: SM      M1      
 Computing Diagnostic #    219  SIhsnow      Counter:       4   Parms: SM      M1      
 Computing Diagnostic #     83  sIceLoad     Counter:       4   Parms: SM      U1      
 Computing Diagnostic #    223  SIuice       Counter:       4   Parms: UU      M1      
           Vector  Mate for  SIuice       Diagnostic #    224  SIvice   exists 
 Computing Diagnostic #    224  SIvice       Counter:       4   Parms: VV      M1      
           Vector  Mate for  SIvice       Diagnostic #    223  SIuice   exists 
 Computing Diagnostic #    225  SItaux       Counter:       4   Parms: UU      U1      
           Vector  Mate for  SItaux       Diagnostic #    226  SItauy   exists 
 Computing Diagnostic #    226  SItauy       Counter:       4   Parms: VV      U1      
           Vector  Mate for  SItauy       Diagnostic #    225  SItaux   exists 
 Computing Diagnostic #    285  SIareaN      Counter:       4   Parms: SM      MX      
 Computing Diagnostic #    284  SIheffN      Counter:       4   Parms: SM      MX      
 Computing Diagnostic #    286  SIhsnowN     Counter:       4   Parms: SM      MX      
 Compute Stats, Diag. #    214  SIarea    vol(   0 ): 3.580E+14  Parms: SM      M1      
 Compute Stats, Diag. #    217  SIheff    vol(   0 ): 3.580E+14  Parms: SM      M1      
 Compute Stats, Diag. #    219  SIhsnow   vol(   0 ): 3.580E+14  Parms: SM      M1      
 Compute Stats, Diag. #     83  sIceLoad  vol(   0 ): 3.580E+14  Parms: SM      U1      
 Compute Stats, Diag. #    223  SIuice    vol(   0 ): 3.513E+14  Parms: UU      M1      
 Compute Stats, Diag. #    224  SIvice    vol(   0 ): 3.508E+14  Parms: VV      M1      
 Compute Stats, Diag. #    225  SItaux    vol(   0 ): 3.513E+14  Parms: UU      U1      
 Compute Stats, Diag. #    226  SItauy    vol(   0 ): 3.508E+14  Parms: VV      U1      
 cg2d: Sum(rhs),rhsMax =   6.16210462932815E+01  2.93632216983148E-01
 Compute Stats, Diag. #    214  SIarea    vol(   0 ): 3.580E+14  Parms: SM      M1      
 Compute Stats, Diag. #    217  SIheff    vol(   0 ): 3.580E+14  Parms: SM      M1      
 Compute Stats, Diag. #    219  SIhsnow   vol(   0 ): 3.580E+14  Parms: SM      M1      
 Compute Stats, Diag. #     83  sIceLoad  vol(   0 ): 3.580E+14  Parms: SM      U1      
 Compute Stats, Diag. #    223  SIuice    vol(   0 ): 3.513E+14  Parms: UU      M1      
 Compute Stats, Diag. #    224  SIvice    vol(   0 ): 3.508E+14  Parms: VV      M1      
 Compute Stats, Diag. #    225  SItaux    vol(   0 ): 3.513E+14  Parms: UU      U1      
 Compute Stats, Diag. #    226  SItauy    vol(   0 ): 3.508E+14  Parms: VV      U1      
 cg2d: Sum(rhs),rhsMax =   6.14608063512618E+01  2.94079450317946E-01
 Compute Stats, Diag. #    214  SIarea    vol(   0 ): 3.580E+14  Parms: SM      M1      
 Compute Stats, Diag. #    217  SIheff    vol(   0 ): 3.580E+14  Parms: SM      M1      
 Compute Stats, Diag. #    219  SIhsnow   vol(   0 ): 3.580E+14  Parms: SM      M1      
 Compute Stats, Diag. #     83  sIceLoad  vol(   0 ): 3.580E+14  Parms: SM      U1      
 Compute Stats, Diag. #    223  SIuice    vol(   0 ): 3.513E+14  Parms: UU      M1      
 Compute Stats, Diag. #    224  SIvice    vol(   0 ): 3.508E+14  Parms: VV      M1      
 Compute Stats, Diag. #    225  SItaux    vol(   0 ): 3.513E+14  Parms: UU      U1      
 Compute Stats, Diag. #    226  SItauy    vol(   0 ): 3.508E+14  Parms: VV      U1      
 cg2d: Sum(rhs),rhsMax =   6.12988144256381E+01  2.94517497378663E-01
 Compute Stats, Diag. #    214  SIarea    vol(   0 ): 3.580E+14  Parms: SM      M1      
 Compute Stats, Diag. #    217  SIheff    vol(   0 ): 3.580E+14  Parms: SM      M1      
 Compute Stats, Diag. #    219  SIhsnow   vol(   0 ): 3.580E+14  Parms: SM      M1      
 Compute Stats, Diag. #     83  sIceLoad  vol(   0 ): 3.580E+14  Parms: SM      U1      
 Compute Stats, Diag. #    223  SIuice    vol(   0 ): 3.513E+14  Parms: UU      M1      
 Compute Stats, Diag. #    224  SIvice    vol(   0 ): 3.508E+14  Parms: VV      M1      
 Compute Stats, Diag. #    225  SItaux    vol(   0 ): 3.513E+14  Parms: UU      U1      
 Compute Stats, Diag. #    226  SItauy    vol(   0 ): 3.508E+14  Parms: VV      U1      
 cg2d: Sum(rhs),rhsMax =   6.11336051927115E+01  2.94940288066678E-01
 Computing Diagnostic #     86  oceQnet      Counter:       4   Parms: SM      U1      
 Computing Diagnostic #     87  oceQsw       Counter:       4   Parms: SM      U1      
 Computing Diagnostic #     84  oceFWflx     Counter:       4   Parms: SM      U1      
 Computing Diagnostic #     85  oceSflux     Counter:       4   Parms: SM      U1      
 Computing Diagnostic #     80  oceTAUX      Counter:       4   Parms: UU      U1      
           Vector  Mate for  oceTAUX      Diagnostic #     81  oceTAUY  exists 
 Computing Diagnostic #     81  oceTAUY      Counter:       4   Parms: VV      U1      
           Vector  Mate for  oceTAUY      Diagnostic #     80  oceTAUX  exists 
 Computing Diagnostic #     26  THETA        Counter:       4   Parms: SMR     MR      
 Computing Diagnostic #     27  SALT         Counter:       4   Parms: SMR     MR      
 Computing Diagnostic #     30  UVEL         Counter:       4   Parms: UUR     MR      
           Vector  Mate for  UVEL         Diagnostic #     31  VVEL     exists 
 Computing Diagnostic #     31  VVEL         Counter:       4   Parms: VVR     MR      
           Vector  Mate for  VVEL         Diagnostic #     30  UVEL     exists 
 Computing Diagnostic #    214  SIarea       Counter:       4   Parms: SM      M1      
 Computing Diagnostic #    217  SIheff       Counter:       4   Parms: SM      M1      
 Computing Diagnostic #    219  SIhsnow      Counter:       4   Parms: SM      M1      
 Computing Diagnostic #     83  sIceLoad     Counter:       4   Parms: SM      U1      
 Computing Diagnostic #    223  SIuice       Counter:       4   Parms: UU      M1      
           Vector  Mate for  SIuice       Diagnostic #    224  SIvice   exists 
 Computing Diagnostic #    224  SIvice       Counter:       4   Parms: VV      M1      
           Vector  Mate for  SIvice       Diagnostic #    223  SIuice   exists 
 Computing Diagnostic #    225  SItaux       Counter:       4   Parms: UU      U1      
           Vector  Mate for  SItaux       Diagnostic #    226  SItauy   exists 
 Computing Diagnostic #    226  SItauy       Counter:       4   Parms: VV      U1      
           Vector  Mate for  SItauy       Diagnostic #    225  SItaux   exists 
 Computing Diagnostic #    285  SIareaN      Counter:       4   Parms: SM      MX      
 Computing Diagnostic #    284  SIheffN      Counter:       4   Parms: SM      MX      
 Computing Diagnostic #    286  SIhsnowN     Counter:       4   Parms: SM      MX      
 Compute Stats, Diag. #    214  SIarea    vol(   0 ): 3.580E+14  Parms: SM      M1      
 Compute Stats, Diag. #    217  SIheff    vol(   0 ): 3.580E+14  Parms: SM      M1      
 Compute Stats, Diag. #    219  SIhsnow   vol(   0 ): 3.580E+14  Parms: SM      M1      
 Compute Stats, Diag. #     83  sIceLoad  vol(   0 ): 3.580E+14  Parms: SM      U1      
 Compute Stats, Diag. #    223  SIuice    vol(   0 ): 3.513E+14  Parms: UU      M1      
 Compute Stats, Diag. #    224  SIvice    vol(   0 ): 3.508E+14  Parms: VV      M1      
 Compute Stats, Diag. #    225  SItaux    vol(   0 ): 3.513E+14  Parms: UU      U1      
 Compute Stats, Diag. #    226  SItauy    vol(   0 ): 3.508E+14  Parms: VV      U1      
 cg2d: Sum(rhs),rhsMax =   6.09717738270417E+01  2.95342166123661E-01
 Compute Stats, Diag. #    214  SIarea    vol(   0 ): 3.580E+14  Parms: SM      M1      
 Compute Stats, Diag. #    217  SIheff    vol(   0 ): 3.580E+14  Parms: SM      M1      
 Compute Stats, Diag. #    219  SIhsnow   vol(   0 ): 3.580E+14  Parms: SM      M1      
 Compute Stats, Diag. #     83  sIceLoad  vol(   0 ): 3.580E+14  Parms: SM      U1      
 Compute Stats, Diag. #    223  SIuice    vol(   0 ): 3.513E+14  Parms: UU      M1      
 Compute Stats, Diag. #    224  SIvice    vol(   0 ): 3.508E+14  Parms: VV      M1      
 Compute Stats, Diag. #    225  SItaux    vol(   0 ): 3.513E+14  Parms: UU      U1      
 Compute Stats, Diag. #    226  SItauy    vol(   0 ): 3.508E+14  Parms: VV      U1      
 cg2d: Sum(rhs),rhsMax =   6.08097081721474E+01  2.95812534844666E-01
 Compute Stats, Diag. #    214  SIarea    vol(   0 ): 3.580E+14  Parms: SM      M1      
 Compute Stats, Diag. #    217  SIheff    vol(   0 ): 3.580E+14  Parms: SM      M1      
 Compute Stats, Diag. #    219  SIhsnow   vol(   0 ): 3.580E+14  Parms: SM      M1      
 Compute Stats, Diag. #     83  sIceLoad  vol(   0 ): 3.580E+14  Parms: SM      U1      
 Compute Stats, Diag. #    223  SIuice    vol(   0 ): 3.513E+14  Parms: UU      M1      
 Compute Stats, Diag. #    224  SIvice    vol(   0 ): 3.508E+14  Parms: VV      M1      
 Compute Stats, Diag. #    225  SItaux    vol(   0 ): 3.513E+14  Parms: UU      U1      
 Compute Stats, Diag. #    226  SItauy    vol(   0 ): 3.508E+14  Parms: VV      U1      
 cg2d: Sum(rhs),rhsMax =   6.06413905242792E+01  2.96335148764550E-01
 Compute Stats, Diag. #    214  SIarea    vol(   0 ): 3.580E+14  Parms: SM      M1      
 Compute Stats, Diag. #    217  SIheff    vol(   0 ): 3.580E+14  Parms: SM      M1      
 Compute Stats, Diag. #    219  SIhsnow   vol(   0 ): 3.580E+14  Parms: SM      M1      
 Compute Stats, Diag. #     83  sIceLoad  vol(   0 ): 3.580E+14  Parms: SM      U1      
 Compute Stats, Diag. #    223  SIuice    vol(   0 ): 3.513E+14  Parms: UU      M1      
 Compute Stats, Diag. #    224  SIvice    vol(   0 ): 3.508E+14  Parms: VV      M1      
 Compute Stats, Diag. #    225  SItaux    vol(   0 ): 3.513E+14  Parms: UU      U1      
 Compute Stats, Diag. #    226  SItauy    vol(   0 ): 3.508E+14  Parms: VV      U1      
 cg2d: Sum(rhs),rhsMax =   6.04668087035771E+01  2.96836384628381E-01
(PID.TID 0000.0001)      cg2d_init_res =   2.20765590758471E-01
(PID.TID 0000.0001)      cg2d_iters(min,last) =      -1      29
(PID.TID 0000.0001)      cg2d_last_res =   2.57303648000263E-05
(PID.TID 0000.0001) // =======================================================
(PID.TID 0000.0001) // Begin MONITOR dynamic field statistics
(PID.TID 0000.0001) // =======================================================
(PID.TID 0000.0001) %MON time_tsnumber                =                   128
(PID.TID 0000.0001) %MON time_secondsf                =   1.1520000000000E+05
(PID.TID 0000.0001) %MON dynstat_eta_max              =   1.0883428855482E+00
(PID.TID 0000.0001) %MON dynstat_eta_min              =  -2.7226666883873E+00
(PID.TID 0000.0001) %MON dynstat_eta_mean             =  -1.9127582774675E-03
(PID.TID 0000.0001) %MON dynstat_eta_sd               =   6.7768374801566E-01
(PID.TID 0000.0001) %MON dynstat_eta_del2             =   7.4790437177005E-05
(PID.TID 0000.0001) %MON dynstat_uvel_max             =   7.5150450120129E-01
(PID.TID 0000.0001) %MON dynstat_uvel_min             =  -1.2068630938869E+00
(PID.TID 0000.0001) %MON dynstat_uvel_mean            =   7.6293353694931E-04
(PID.TID 0000.0001) %MON dynstat_uvel_sd              =   2.0728461273121E-02
(PID.TID 0000.0001) %MON dynstat_uvel_del2            =   1.2038650335022E-05
(PID.TID 0000.0001) %MON dynstat_vvel_max             =   1.3698322239855E+00
(PID.TID 0000.0001) %MON dynstat_vvel_min             =  -8.8258429435378E-01
(PID.TID 0000.0001) %MON dynstat_vvel_mean            =   1.2514664814005E-03
(PID.TID 0000.0001) %MON dynstat_vvel_sd              =   2.1899676072077E-02
(PID.TID 0000.0001) %MON dynstat_vvel_del2            =   1.1640317617636E-05
(PID.TID 0000.0001) %MON dynstat_wvel_max             =   4.1218185674624E-03
(PID.TID 0000.0001) %MON dynstat_wvel_min             =  -2.6212040080018E-03
(PID.TID 0000.0001) %MON dynstat_wvel_mean            =   6.1084399289689E-08
(PID.TID 0000.0001) %MON dynstat_wvel_sd              =   2.8463921602563E-05
(PID.TID 0000.0001) %MON dynstat_wvel_del2            =   4.2708651853537E-08
(PID.TID 0000.0001) %MON dynstat_theta_max            =   3.2564861485902E+01
(PID.TID 0000.0001) %MON dynstat_theta_min            =  -2.0420280572830E+00
(PID.TID 0000.0001) %MON dynstat_theta_mean           =   3.5905192141100E+00
(PID.TID 0000.0001) %MON dynstat_theta_sd             =   4.4363207603732E+00
(PID.TID 0000.0001) %MON dynstat_theta_del2           =   1.0226098171502E-04
(PID.TID 0000.0001) %MON dynstat_salt_max             =   4.0711536353611E+01
(PID.TID 0000.0001) %MON dynstat_salt_min             =   1.4547880745462E+01
(PID.TID 0000.0001) %MON dynstat_salt_mean            =   3.4725598445449E+01
(PID.TID 0000.0001) %MON dynstat_salt_sd              =   3.7704952783900E-01
(PID.TID 0000.0001) %MON dynstat_salt_del2            =   3.0156180759991E-05
(PID.TID 0000.0001) %MON dynstat_sst_max              =   3.2564861485902E+01
(PID.TID 0000.0001) %MON dynstat_sst_min              =  -1.8579260961444E+00
(PID.TID 0000.0001) %MON dynstat_sst_mean             =   1.8490138998794E+01
(PID.TID 0000.0001) %MON dynstat_sst_sd               =   1.0127475159203E+01
(PID.TID 0000.0001) %MON dynstat_sst_del2             =   8.4010817762557E-04
(PID.TID 0000.0001) %MON dynstat_sss_max              =   3.9267761785387E+01
(PID.TID 0000.0001) %MON dynstat_sss_min              =   1.4547880745462E+01
(PID.TID 0000.0001) %MON dynstat_sss_mean             =   3.4690090864269E+01
(PID.TID 0000.0001) %MON dynstat_sss_sd               =   1.1335623344053E+00
(PID.TID 0000.0001) %MON dynstat_sss_del2             =   7.6317856268536E-04
(PID.TID 0000.0001) %MON forcing_qnet_max             =   1.5793216552734E+03
(PID.TID 0000.0001) %MON forcing_qnet_min             =  -6.3346960048205E+02
(PID.TID 0000.0001) %MON forcing_qnet_mean            =   2.4221653384635E+01
(PID.TID 0000.0001) %MON forcing_qnet_sd              =   1.8074793519895E+02
(PID.TID 0000.0001) %MON forcing_qnet_del2            =   3.4368747551859E-01
(PID.TID 0000.0001) %MON forcing_qsw_max              =   0.0000000000000E+00
(PID.TID 0000.0001) %MON forcing_qsw_min              =  -1.0745190296869E+02
(PID.TID 0000.0001) %MON forcing_qsw_mean             =  -1.6340515208824E+01
(PID.TID 0000.0001) %MON forcing_qsw_sd               =   2.5751207260863E+01
(PID.TID 0000.0001) %MON forcing_qsw_del2             =   2.1634013672969E-02
(PID.TID 0000.0001) %MON forcing_empmr_max            =   1.2547348160297E-03
(PID.TID 0000.0001) %MON forcing_empmr_min            =  -6.8412028253078E-02
(PID.TID 0000.0001) %MON forcing_empmr_mean           =  -6.3141504472925E-06
(PID.TID 0000.0001) %MON forcing_empmr_sd             =   3.2175566043202E-04
(PID.TID 0000.0001) %MON forcing_empmr_del2           =   3.8690307699404E-06
(PID.TID 0000.0001) %MON forcing_fu_max               =   8.8567596673966E-01
(PID.TID 0000.0001) %MON forcing_fu_min               =  -1.2281178443599E+00
(PID.TID 0000.0001) %MON forcing_fu_mean              =   7.1065733665985E-03
(PID.TID 0000.0001) %MON forcing_fu_sd                =   1.0499584794004E-01
(PID.TID 0000.0001) %MON forcing_fu_del2              =   1.6025675093529E-04
(PID.TID 0000.0001) %MON forcing_fv_max               =   1.2974941730499E+00
(PID.TID 0000.0001) %MON forcing_fv_min               =  -1.2647449374199E+00
(PID.TID 0000.0001) %MON forcing_fv_mean              =  -1.0431096750521E-02
(PID.TID 0000.0001) %MON forcing_fv_sd                =   1.1185452451328E-01
(PID.TID 0000.0001) %MON forcing_fv_del2              =   1.5622695542498E-04
(PID.TID 0000.0001) %MON trAdv_CFL_u_max              =   2.0546172268972E-02
(PID.TID 0000.0001) %MON trAdv_CFL_v_max              =   2.3245556775959E-02
(PID.TID 0000.0001) %MON trAdv_CFL_w_max              =   1.3496322920029E-01
(PID.TID 0000.0001) %MON advcfl_uvel_max              =   1.9967447859445E-02
(PID.TID 0000.0001) %MON advcfl_vvel_max              =   2.4315760536622E-02
(PID.TID 0000.0001) %MON advcfl_wvel_max              =   1.4131584930503E-01
(PID.TID 0000.0001) %MON advcfl_W_hf_max              =   1.4892099827296E-01
(PID.TID 0000.0001) %MON pe_b_mean                    =   6.0411010831918E-04
(PID.TID 0000.0001) %MON ke_max                       =   1.0392458386066E+00
(PID.TID 0000.0001) %MON ke_mean                      =   4.3947838159789E-04
(PID.TID 0000.0001) %MON ke_vol                       =   1.3349971901682E+18
(PID.TID 0000.0001) %MON vort_r_min                   =  -3.3494411879326E-05
(PID.TID 0000.0001) %MON vort_r_max                   =   3.9509124398841E-05
(PID.TID 0000.0001) %MON vort_a_mean                  =  -1.9727864647440E-05
(PID.TID 0000.0001) %MON vort_a_sd                    =   7.4543033678179E-05
(PID.TID 0000.0001) %MON vort_p_mean                  =  -2.1760540448557E-05
(PID.TID 0000.0001) %MON vort_p_sd                    =   9.7246372543754E-05
(PID.TID 0000.0001) %MON surfExpan_theta_mean         =   4.4616134065580E-07
(PID.TID 0000.0001) %MON surfExpan_salt_mean          =  -8.1044619981962E-09
(PID.TID 0000.0001) // =======================================================
(PID.TID 0000.0001) // End MONITOR dynamic field statistics
(PID.TID 0000.0001) // =======================================================
(PID.TID 0000.0001) // =======================================================
(PID.TID 0000.0001) // Begin MONITOR SEAICE statistics
(PID.TID 0000.0001) // =======================================================
(PID.TID 0000.0001) %MON seaice_tsnumber              =                   128
(PID.TID 0000.0001) %MON seaice_time_sec              =   1.1520000000000E+05
(PID.TID 0000.0001) %MON seaice_uice_max              =   4.0000000000000E-01
(PID.TID 0000.0001) %MON seaice_uice_min              =  -4.0000000000000E-01
(PID.TID 0000.0001) %MON seaice_uice_mean             =  -8.3054598624025E-03
(PID.TID 0000.0001) %MON seaice_uice_sd               =   1.9802383574176E-01
(PID.TID 0000.0001) %MON seaice_uice_del2             =   2.2931571122150E-04
(PID.TID 0000.0001) %MON seaice_vice_max              =   4.0000000000000E-01
(PID.TID 0000.0001) %MON seaice_vice_min              =  -4.0000000000000E-01
(PID.TID 0000.0001) %MON seaice_vice_mean             =  -2.1960776359499E-02
(PID.TID 0000.0001) %MON seaice_vice_sd               =   2.1302038025672E-01
(PID.TID 0000.0001) %MON seaice_vice_del2             =   2.3932563818061E-04
(PID.TID 0000.0001) %MON seaice_area_max              =   1.0000000000000E+00
(PID.TID 0000.0001) %MON seaice_area_min              =   0.0000000000000E+00
(PID.TID 0000.0001) %MON seaice_area_mean             =   6.9601921903967E-02
(PID.TID 0000.0001) %MON seaice_area_sd               =   2.3608517393406E-01
(PID.TID 0000.0001) %MON seaice_area_del2             =   4.5741779347261E-04
(PID.TID 0000.0001) %MON seaice_heff_max              =   2.5227161207236E+01
(PID.TID 0000.0001) %MON seaice_heff_min              =   0.0000000000000E+00
(PID.TID 0000.0001) %MON seaice_heff_mean             =   2.1635098271304E-01
(PID.TID 0000.0001) %MON seaice_heff_sd               =   1.0706477233687E+00
(PID.TID 0000.0001) %MON seaice_heff_del2             =   3.9077295106355E-03
(PID.TID 0000.0001) %MON seaice_hsnow_max             =   8.3320895615907E+00
(PID.TID 0000.0001) %MON seaice_hsnow_min             =   0.0000000000000E+00
(PID.TID 0000.0001) %MON seaice_hsnow_mean            =   2.4523029359471E-02
(PID.TID 0000.0001) %MON seaice_hsnow_sd              =   1.5770200962002E-01
(PID.TID 0000.0001) %MON seaice_hsnow_del2            =   1.2530328293496E-03
(PID.TID 0000.0001) // =======================================================
(PID.TID 0000.0001) // End MONITOR SEAICE statistics
(PID.TID 0000.0001) // =======================================================
 Computing Diagnostic #     86  oceQnet      Counter:       4   Parms: SM      U1      
 Computing Diagnostic #     87  oceQsw       Counter:       4   Parms: SM      U1      
 Computing Diagnostic #     84  oceFWflx     Counter:       4   Parms: SM      U1      
 Computing Diagnostic #     85  oceSflux     Counter:       4   Parms: SM      U1      
 Computing Diagnostic #     80  oceTAUX      Counter:       4   Parms: UU      U1      
           Vector  Mate for  oceTAUX      Diagnostic #     81  oceTAUY  exists 
 Computing Diagnostic #     81  oceTAUY      Counter:       4   Parms: VV      U1      
           Vector  Mate for  oceTAUY      Diagnostic #     80  oceTAUX  exists 
 Computing Diagnostic #     26  THETA        Counter:       4   Parms: SMR     MR      
 Computing Diagnostic #     27  SALT         Counter:       4   Parms: SMR     MR      
 Computing Diagnostic #     30  UVEL         Counter:       4   Parms: UUR     MR      
           Vector  Mate for  UVEL         Diagnostic #     31  VVEL     exists 
 Computing Diagnostic #     31  VVEL         Counter:       4   Parms: VVR     MR      
           Vector  Mate for  VVEL         Diagnostic #     30  UVEL     exists 
 Computing Diagnostic #    214  SIarea       Counter:       4   Parms: SM      M1      
 Computing Diagnostic #    217  SIheff       Counter:       4   Parms: SM      M1      
 Computing Diagnostic #    219  SIhsnow      Counter:       4   Parms: SM      M1      
 Computing Diagnostic #     83  sIceLoad     Counter:       4   Parms: SM      U1      
 Computing Diagnostic #    223  SIuice       Counter:       4   Parms: UU      M1      
           Vector  Mate for  SIuice       Diagnostic #    224  SIvice   exists 
 Computing Diagnostic #    224  SIvice       Counter:       4   Parms: VV      M1      
           Vector  Mate for  SIvice       Diagnostic #    223  SIuice   exists 
 Computing Diagnostic #    225  SItaux       Counter:       4   Parms: UU      U1      
           Vector  Mate for  SItaux       Diagnostic #    226  SItauy   exists 
 Computing Diagnostic #    226  SItauy       Counter:       4   Parms: VV      U1      
           Vector  Mate for  SItauy       Diagnostic #    225  SItaux   exists 
 Computing Diagnostic #    285  SIareaN      Counter:       4   Parms: SM      MX      
 Computing Diagnostic #    284  SIheffN      Counter:       4   Parms: SM      MX      
 Computing Diagnostic #    286  SIhsnowN     Counter:       4   Parms: SM      MX      
 Compute Stats, Diag. #    214  SIarea    vol(   0 ): 3.580E+14  Parms: SM      M1      
 Compute Stats, Diag. #    217  SIheff    vol(   0 ): 3.580E+14  Parms: SM      M1      
 Compute Stats, Diag. #    219  SIhsnow   vol(   0 ): 3.580E+14  Parms: SM      M1      
 Compute Stats, Diag. #     83  sIceLoad  vol(   0 ): 3.580E+14  Parms: SM      U1      
 Compute Stats, Diag. #    223  SIuice    vol(   0 ): 3.513E+14  Parms: UU      M1      
 Compute Stats, Diag. #    224  SIvice    vol(   0 ): 3.508E+14  Parms: VV      M1      
 Compute Stats, Diag. #    225  SItaux    vol(   0 ): 3.513E+14  Parms: UU      U1      
 Compute Stats, Diag. #    226  SItauy    vol(   0 ): 3.508E+14  Parms: VV      U1      
 cg2d: Sum(rhs),rhsMax =   6.02894475781311E+01  2.97310192659483E-01
 Compute Stats, Diag. #    214  SIarea    vol(   0 ): 3.580E+14  Parms: SM      M1      
 Compute Stats, Diag. #    217  SIheff    vol(   0 ): 3.580E+14  Parms: SM      M1      
 Compute Stats, Diag. #    219  SIhsnow   vol(   0 ): 3.580E+14  Parms: SM      M1      
 Compute Stats, Diag. #     83  sIceLoad  vol(   0 ): 3.580E+14  Parms: SM      U1      
 Compute Stats, Diag. #    223  SIuice    vol(   0 ): 3.513E+14  Parms: UU      M1      
 Compute Stats, Diag. #    224  SIvice    vol(   0 ): 3.508E+14  Parms: VV      M1      
 Compute Stats, Diag. #    225  SItaux    vol(   0 ): 3.513E+14  Parms: UU      U1      
 Compute Stats, Diag. #    226  SItauy    vol(   0 ): 3.508E+14  Parms: VV      U1      
 cg2d: Sum(rhs),rhsMax =   6.01077861094826E+01  2.97750638242957E-01
 Compute Stats, Diag. #    214  SIarea    vol(   0 ): 3.580E+14  Parms: SM      M1      
 Compute Stats, Diag. #    217  SIheff    vol(   0 ): 3.580E+14  Parms: SM      M1      
 Compute Stats, Diag. #    219  SIhsnow   vol(   0 ): 3.580E+14  Parms: SM      M1      
 Compute Stats, Diag. #     83  sIceLoad  vol(   0 ): 3.580E+14  Parms: SM      U1      
 Compute Stats, Diag. #    223  SIuice    vol(   0 ): 3.513E+14  Parms: UU      M1      
 Compute Stats, Diag. #    224  SIvice    vol(   0 ): 3.508E+14  Parms: VV      M1      
 Compute Stats, Diag. #    225  SItaux    vol(   0 ): 3.513E+14  Parms: UU      U1      
 Compute Stats, Diag. #    226  SItauy    vol(   0 ): 3.508E+14  Parms: VV      U1      
 cg2d: Sum(rhs),rhsMax =   5.99285835487405E+01  2.98151786172671E-01
 Compute Stats, Diag. #    214  SIarea    vol(   0 ): 3.580E+14  Parms: SM      M1      
 Compute Stats, Diag. #    217  SIheff    vol(   0 ): 3.580E+14  Parms: SM      M1      
 Compute Stats, Diag. #    219  SIhsnow   vol(   0 ): 3.580E+14  Parms: SM      M1      
 Compute Stats, Diag. #     83  sIceLoad  vol(   0 ): 3.580E+14  Parms: SM      U1      
 Compute Stats, Diag. #    223  SIuice    vol(   0 ): 3.513E+14  Parms: UU      M1      
 Compute Stats, Diag. #    224  SIvice    vol(   0 ): 3.508E+14  Parms: VV      M1      
 Compute Stats, Diag. #    225  SItaux    vol(   0 ): 3.513E+14  Parms: UU      U1      
 Compute Stats, Diag. #    226  SItauy    vol(   0 ): 3.508E+14  Parms: VV      U1      
 cg2d: Sum(rhs),rhsMax =   5.97368685053101E+01  2.98511125999236E-01
 Computing Diagnostic #     86  oceQnet      Counter:       4   Parms: SM      U1      
 Computing Diagnostic #     87  oceQsw       Counter:       4   Parms: SM      U1      
 Computing Diagnostic #     84  oceFWflx     Counter:       4   Parms: SM      U1      
 Computing Diagnostic #     85  oceSflux     Counter:       4   Parms: SM      U1      
 Computing Diagnostic #     80  oceTAUX      Counter:       4   Parms: UU      U1      
           Vector  Mate for  oceTAUX      Diagnostic #     81  oceTAUY  exists 
 Computing Diagnostic #     81  oceTAUY      Counter:       4   Parms: VV      U1      
           Vector  Mate for  oceTAUY      Diagnostic #     80  oceTAUX  exists 
 Computing Diagnostic #     26  THETA        Counter:       4   Parms: SMR     MR      
 Computing Diagnostic #     27  SALT         Counter:       4   Parms: SMR     MR      
 Computing Diagnostic #     30  UVEL         Counter:       4   Parms: UUR     MR      
           Vector  Mate for  UVEL         Diagnostic #     31  VVEL     exists 
 Computing Diagnostic #     31  VVEL         Counter:       4   Parms: VVR     MR      
           Vector  Mate for  VVEL         Diagnostic #     30  UVEL     exists 
 Computing Diagnostic #    214  SIarea       Counter:       4   Parms: SM      M1      
 Computing Diagnostic #    217  SIheff       Counter:       4   Parms: SM      M1      
 Computing Diagnostic #    219  SIhsnow      Counter:       4   Parms: SM      M1      
 Computing Diagnostic #     83  sIceLoad     Counter:       4   Parms: SM      U1      
 Computing Diagnostic #    223  SIuice       Counter:       4   Parms: UU      M1      
           Vector  Mate for  SIuice       Diagnostic #    224  SIvice   exists 
 Computing Diagnostic #    224  SIvice       Counter:       4   Parms: VV      M1      
           Vector  Mate for  SIvice       Diagnostic #    223  SIuice   exists 
 Computing Diagnostic #    225  SItaux       Counter:       4   Parms: UU      U1      
           Vector  Mate for  SItaux       Diagnostic #    226  SItauy   exists 
 Computing Diagnostic #    226  SItauy       Counter:       4   Parms: VV      U1      
           Vector  Mate for  SItauy       Diagnostic #    225  SItaux   exists 
 Computing Diagnostic #    285  SIareaN      Counter:       4   Parms: SM      MX      
 Computing Diagnostic #    284  SIheffN      Counter:       4   Parms: SM      MX      
 Computing Diagnostic #    286  SIhsnowN     Counter:       4   Parms: SM      MX      
 Compute Stats, Diag. #    214  SIarea    vol(   0 ): 3.580E+14  Parms: SM      M1      
 Compute Stats, Diag. #    217  SIheff    vol(   0 ): 3.580E+14  Parms: SM      M1      
 Compute Stats, Diag. #    219  SIhsnow   vol(   0 ): 3.580E+14  Parms: SM      M1      
 Compute Stats, Diag. #     83  sIceLoad  vol(   0 ): 3.580E+14  Parms: SM      U1      
 Compute Stats, Diag. #    223  SIuice    vol(   0 ): 3.513E+14  Parms: UU      M1      
 Compute Stats, Diag. #    224  SIvice    vol(   0 ): 3.508E+14  Parms: VV      M1      
 Compute Stats, Diag. #    225  SItaux    vol(   0 ): 3.513E+14  Parms: UU      U1      
 Compute Stats, Diag. #    226  SItauy    vol(   0 ): 3.508E+14  Parms: VV      U1      
 cg2d: Sum(rhs),rhsMax =   5.95494194313523E+01  2.98821799344510E-01
 Compute Stats, Diag. #    214  SIarea    vol(   0 ): 3.580E+14  Parms: SM      M1      
 Compute Stats, Diag. #    217  SIheff    vol(   0 ): 3.580E+14  Parms: SM      M1      
 Compute Stats, Diag. #    219  SIhsnow   vol(   0 ): 3.580E+14  Parms: SM      M1      
 Compute Stats, Diag. #     83  sIceLoad  vol(   0 ): 3.580E+14  Parms: SM      U1      
 Compute Stats, Diag. #    223  SIuice    vol(   0 ): 3.513E+14  Parms: UU      M1      
 Compute Stats, Diag. #    224  SIvice    vol(   0 ): 3.508E+14  Parms: VV      M1      
 Compute Stats, Diag. #    225  SItaux    vol(   0 ): 3.513E+14  Parms: UU      U1      
 Compute Stats, Diag. #    226  SItauy    vol(   0 ): 3.508E+14  Parms: VV      U1      
 cg2d: Sum(rhs),rhsMax =   5.93654472995243E+01  2.99083046867697E-01
 Compute Stats, Diag. #    214  SIarea    vol(   0 ): 3.580E+14  Parms: SM      M1      
 Compute Stats, Diag. #    217  SIheff    vol(   0 ): 3.580E+14  Parms: SM      M1      
 Compute Stats, Diag. #    219  SIhsnow   vol(   0 ): 3.580E+14  Parms: SM      M1      
 Compute Stats, Diag. #     83  sIceLoad  vol(   0 ): 3.580E+14  Parms: SM      U1      
 Compute Stats, Diag. #    223  SIuice    vol(   0 ): 3.513E+14  Parms: UU      M1      
 Compute Stats, Diag. #    224  SIvice    vol(   0 ): 3.508E+14  Parms: VV      M1      
 Compute Stats, Diag. #    225  SItaux    vol(   0 ): 3.513E+14  Parms: UU      U1      
 Compute Stats, Diag. #    226  SItauy    vol(   0 ): 3.508E+14  Parms: VV      U1      
 cg2d: Sum(rhs),rhsMax =   5.91818079667457E+01  2.99291251518774E-01
 Compute Stats, Diag. #    214  SIarea    vol(   0 ): 3.580E+14  Parms: SM      M1      
 Compute Stats, Diag. #    217  SIheff    vol(   0 ): 3.580E+14  Parms: SM      M1      
 Compute Stats, Diag. #    219  SIhsnow   vol(   0 ): 3.580E+14  Parms: SM      M1      
 Compute Stats, Diag. #     83  sIceLoad  vol(   0 ): 3.580E+14  Parms: SM      U1      
 Compute Stats, Diag. #    223  SIuice    vol(   0 ): 3.513E+14  Parms: UU      M1      
 Compute Stats, Diag. #    224  SIvice    vol(   0 ): 3.508E+14  Parms: VV      M1      
 Compute Stats, Diag. #    225  SItaux    vol(   0 ): 3.513E+14  Parms: UU      U1      
 Compute Stats, Diag. #    226  SItauy    vol(   0 ): 3.508E+14  Parms: VV      U1      
 cg2d: Sum(rhs),rhsMax =   5.89901933500202E+01  2.99445287604650E-01
(PID.TID 0000.0001)      cg2d_init_res =   2.22782887681178E-01
(PID.TID 0000.0001)      cg2d_iters(min,last) =      -1      29
(PID.TID 0000.0001)      cg2d_last_res =   2.35550242108598E-05
(PID.TID 0000.0001) // =======================================================
(PID.TID 0000.0001) // Begin MONITOR dynamic field statistics
(PID.TID 0000.0001) // =======================================================
(PID.TID 0000.0001) %MON time_tsnumber                =                   136
(PID.TID 0000.0001) %MON time_secondsf                =   1.2240000000000E+05
(PID.TID 0000.0001) %MON dynstat_eta_max              =   1.0894979768537E+00
(PID.TID 0000.0001) %MON dynstat_eta_min              =  -2.7152582478414E+00
(PID.TID 0000.0001) %MON dynstat_eta_mean             =  -1.8660482178381E-03
(PID.TID 0000.0001) %MON dynstat_eta_sd               =   6.7620956194681E-01
(PID.TID 0000.0001) %MON dynstat_eta_del2             =   7.3501092471787E-05
(PID.TID 0000.0001) %MON dynstat_uvel_max             =   7.6407045542404E-01
(PID.TID 0000.0001) %MON dynstat_uvel_min             =  -1.1798030876662E+00
(PID.TID 0000.0001) %MON dynstat_uvel_mean            =   7.5528293715340E-04
(PID.TID 0000.0001) %MON dynstat_uvel_sd              =   2.0676857023229E-02
(PID.TID 0000.0001) %MON dynstat_uvel_del2            =   1.1657693363658E-05
(PID.TID 0000.0001) %MON dynstat_vvel_max             =   1.3812947811032E+00
(PID.TID 0000.0001) %MON dynstat_vvel_min             =  -8.7868525797482E-01
(PID.TID 0000.0001) %MON dynstat_vvel_mean            =   1.2206217004672E-03
(PID.TID 0000.0001) %MON dynstat_vvel_sd              =   2.1847833125399E-02
(PID.TID 0000.0001) %MON dynstat_vvel_del2            =   1.1388213955298E-05
(PID.TID 0000.0001) %MON dynstat_wvel_max             =   3.8842128283923E-03
(PID.TID 0000.0001) %MON dynstat_wvel_min             =  -2.7634372135790E-03
(PID.TID 0000.0001) %MON dynstat_wvel_mean            =   6.8972255062205E-08
(PID.TID 0000.0001) %MON dynstat_wvel_sd              =   2.7863271759343E-05
(PID.TID 0000.0001) %MON dynstat_wvel_del2            =   4.0413941255982E-08
(PID.TID 0000.0001) %MON dynstat_theta_max            =   3.2570825575342E+01
(PID.TID 0000.0001) %MON dynstat_theta_min            =  -2.0419684810162E+00
(PID.TID 0000.0001) %MON dynstat_theta_mean           =   3.5905025577874E+00
(PID.TID 0000.0001) %MON dynstat_theta_sd             =   4.4362699951407E+00
(PID.TID 0000.0001) %MON dynstat_theta_del2           =   1.0191865002243E-04
(PID.TID 0000.0001) %MON dynstat_salt_max             =   4.0711537001410E+01
(PID.TID 0000.0001) %MON dynstat_salt_min             =   1.4143628102667E+01
(PID.TID 0000.0001) %MON dynstat_salt_mean            =   3.4725596588200E+01
(PID.TID 0000.0001) %MON dynstat_salt_sd              =   3.7704353019471E-01
(PID.TID 0000.0001) %MON dynstat_salt_del2            =   3.0689359218028E-05
(PID.TID 0000.0001) %MON dynstat_sst_max              =   3.2570825575342E+01
(PID.TID 0000.0001) %MON dynstat_sst_min              =  -1.8544801446131E+00
(PID.TID 0000.0001) %MON dynstat_sst_mean             =   1.8486466212810E+01
(PID.TID 0000.0001) %MON dynstat_sst_sd               =   1.0128755269908E+01
(PID.TID 0000.0001) %MON dynstat_sst_del2             =   8.3780554005837E-04
(PID.TID 0000.0001) %MON dynstat_sss_max              =   3.9254403818701E+01
(PID.TID 0000.0001) %MON dynstat_sss_min              =   1.4143628102667E+01
(PID.TID 0000.0001) %MON dynstat_sss_mean             =   3.4690813773451E+01
(PID.TID 0000.0001) %MON dynstat_sss_sd               =   1.1348612530479E+00
(PID.TID 0000.0001) %MON dynstat_sss_del2             =   7.9938226730306E-04
(PID.TID 0000.0001) %MON forcing_qnet_max             =   3.3471491699219E+03
(PID.TID 0000.0001) %MON forcing_qnet_min             =  -7.3150666074785E+02
(PID.TID 0000.0001) %MON forcing_qnet_mean            =   4.2266876765648E+01
(PID.TID 0000.0001) %MON forcing_qnet_sd              =   1.8161602176526E+02
(PID.TID 0000.0001) %MON forcing_qnet_del2            =   3.7295712966055E-01
(PID.TID 0000.0001) %MON forcing_qsw_max              =   0.0000000000000E+00
(PID.TID 0000.0001) %MON forcing_qsw_min              =  -1.1024091829379E+02
(PID.TID 0000.0001) %MON forcing_qsw_mean             =  -1.4353827851958E+01
(PID.TID 0000.0001) %MON forcing_qsw_sd               =   2.6268327940145E+01
(PID.TID 0000.0001) %MON forcing_qsw_del2             =   1.9422275986336E-02
(PID.TID 0000.0001) %MON forcing_empmr_max            =   1.7830007709563E-03
(PID.TID 0000.0001) %MON forcing_empmr_min            =  -1.3358791172504E-01
(PID.TID 0000.0001) %MON forcing_empmr_mean           =  -6.9301804336320E-06
(PID.TID 0000.0001) %MON forcing_empmr_sd             =   4.4561794101671E-04
(PID.TID 0000.0001) %MON forcing_empmr_del2           =   6.9400407416436E-06
(PID.TID 0000.0001) %MON forcing_fu_max               =   8.4842771291733E-01
(PID.TID 0000.0001) %MON forcing_fu_min               =  -1.2811456885969E+00
(PID.TID 0000.0001) %MON forcing_fu_mean              =   7.4466486262613E-03
(PID.TID 0000.0001) %MON forcing_fu_sd                =   1.0419618721392E-01
(PID.TID 0000.0001) %MON forcing_fu_del2              =   1.6136897579927E-04
(PID.TID 0000.0001) %MON forcing_fv_max               =   1.2334739565849E+00
(PID.TID 0000.0001) %MON forcing_fv_min               =  -1.2325630784035E+00
(PID.TID 0000.0001) %MON forcing_fv_mean              =  -1.0995756231697E-02
(PID.TID 0000.0001) %MON forcing_fv_sd                =   1.1171563674820E-01
(PID.TID 0000.0001) %MON forcing_fv_del2              =   1.5606537049299E-04
(PID.TID 0000.0001) %MON trAdv_CFL_u_max              =   1.9816578542437E-02
(PID.TID 0000.0001) %MON trAdv_CFL_v_max              =   2.3452299920696E-02
(PID.TID 0000.0001) %MON trAdv_CFL_w_max              =   1.2626278983094E-01
(PID.TID 0000.0001) %MON advcfl_uvel_max              =   1.9519742344192E-02
(PID.TID 0000.0001) %MON advcfl_vvel_max              =   2.4519231289559E-02
(PID.TID 0000.0001) %MON advcfl_wvel_max              =   1.3225102313414E-01
(PID.TID 0000.0001) %MON advcfl_W_hf_max              =   1.3937388713775E-01
(PID.TID 0000.0001) %MON pe_b_mean                    =   6.0148447010880E-04
(PID.TID 0000.0001) %MON ke_max                       =   1.0523620853586E+00
(PID.TID 0000.0001) %MON ke_mean                      =   4.3731216238689E-04
(PID.TID 0000.0001) %MON ke_vol                       =   1.3349972066981E+18
(PID.TID 0000.0001) %MON vort_r_min                   =  -3.2737528222680E-05
(PID.TID 0000.0001) %MON vort_r_max                   =   3.9825560728362E-05
(PID.TID 0000.0001) %MON vort_a_mean                  =  -1.9727864647440E-05
(PID.TID 0000.0001) %MON vort_a_sd                    =   7.4543020732377E-05
(PID.TID 0000.0001) %MON vort_p_mean                  =  -2.1760540845425E-05
(PID.TID 0000.0001) %MON vort_p_sd                    =   9.7246493752231E-05
(PID.TID 0000.0001) %MON surfExpan_theta_mean         =   4.6859627873904E-07
(PID.TID 0000.0001) %MON surfExpan_salt_mean          =   8.1887087277112E-09
(PID.TID 0000.0001) // =======================================================
(PID.TID 0000.0001) // End MONITOR dynamic field statistics
(PID.TID 0000.0001) // =======================================================
(PID.TID 0000.0001) // =======================================================
(PID.TID 0000.0001) // Begin MONITOR SEAICE statistics
(PID.TID 0000.0001) // =======================================================
(PID.TID 0000.0001) %MON seaice_tsnumber              =                   136
(PID.TID 0000.0001) %MON seaice_time_sec              =   1.2240000000000E+05
(PID.TID 0000.0001) %MON seaice_uice_max              =   4.0000000000000E-01
(PID.TID 0000.0001) %MON seaice_uice_min              =  -4.0000000000000E-01
(PID.TID 0000.0001) %MON seaice_uice_mean             =  -8.3054598624025E-03
(PID.TID 0000.0001) %MON seaice_uice_sd               =   1.9802383574176E-01
(PID.TID 0000.0001) %MON seaice_uice_del2             =   2.2931571122150E-04
(PID.TID 0000.0001) %MON seaice_vice_max              =   4.0000000000000E-01
(PID.TID 0000.0001) %MON seaice_vice_min              =  -4.0000000000000E-01
(PID.TID 0000.0001) %MON seaice_vice_mean             =  -2.1960776359499E-02
(PID.TID 0000.0001) %MON seaice_vice_sd               =   2.1302038025672E-01
(PID.TID 0000.0001) %MON seaice_vice_del2             =   2.3932563818061E-04
(PID.TID 0000.0001) %MON seaice_area_max              =   1.0000000000000E+00
(PID.TID 0000.0001) %MON seaice_area_min              =   0.0000000000000E+00
(PID.TID 0000.0001) %MON seaice_area_mean             =   6.9496409699237E-02
(PID.TID 0000.0001) %MON seaice_area_sd               =   2.3595432610606E-01
(PID.TID 0000.0001) %MON seaice_area_del2             =   4.5595006834244E-04
(PID.TID 0000.0001) %MON seaice_heff_max              =   2.5223705653800E+01
(PID.TID 0000.0001) %MON seaice_heff_min              =   0.0000000000000E+00
(PID.TID 0000.0001) %MON seaice_heff_mean             =   2.1628416959617E-01
(PID.TID 0000.0001) %MON seaice_heff_sd               =   1.0706034228839E+00
(PID.TID 0000.0001) %MON seaice_heff_del2             =   3.9067627494236E-03
(PID.TID 0000.0001) %MON seaice_hsnow_max             =   8.3309522865748E+00
(PID.TID 0000.0001) %MON seaice_hsnow_min             =   0.0000000000000E+00
(PID.TID 0000.0001) %MON seaice_hsnow_mean            =   2.4518940163047E-02
(PID.TID 0000.0001) %MON seaice_hsnow_sd              =   1.5767545763977E-01
(PID.TID 0000.0001) %MON seaice_hsnow_del2            =   1.2527947009005E-03
(PID.TID 0000.0001) // =======================================================
(PID.TID 0000.0001) // End MONITOR SEAICE statistics
(PID.TID 0000.0001) // =======================================================
 Computing Diagnostic #     86  oceQnet      Counter:       4   Parms: SM      U1      
 Computing Diagnostic #     87  oceQsw       Counter:       4   Parms: SM      U1      
 Computing Diagnostic #     84  oceFWflx     Counter:       4   Parms: SM      U1      
 Computing Diagnostic #     85  oceSflux     Counter:       4   Parms: SM      U1      
 Computing Diagnostic #     80  oceTAUX      Counter:       4   Parms: UU      U1      
           Vector  Mate for  oceTAUX      Diagnostic #     81  oceTAUY  exists 
 Computing Diagnostic #     81  oceTAUY      Counter:       4   Parms: VV      U1      
           Vector  Mate for  oceTAUY      Diagnostic #     80  oceTAUX  exists 
 Computing Diagnostic #     26  THETA        Counter:       4   Parms: SMR     MR      
 Computing Diagnostic #     27  SALT         Counter:       4   Parms: SMR     MR      
 Computing Diagnostic #     30  UVEL         Counter:       4   Parms: UUR     MR      
           Vector  Mate for  UVEL         Diagnostic #     31  VVEL     exists 
 Computing Diagnostic #     31  VVEL         Counter:       4   Parms: VVR     MR      
           Vector  Mate for  VVEL         Diagnostic #     30  UVEL     exists 
 Computing Diagnostic #    214  SIarea       Counter:       4   Parms: SM      M1      
 Computing Diagnostic #    217  SIheff       Counter:       4   Parms: SM      M1      
 Computing Diagnostic #    219  SIhsnow      Counter:       4   Parms: SM      M1      
 Computing Diagnostic #     83  sIceLoad     Counter:       4   Parms: SM      U1      
 Computing Diagnostic #    223  SIuice       Counter:       4   Parms: UU      M1      
           Vector  Mate for  SIuice       Diagnostic #    224  SIvice   exists 
 Computing Diagnostic #    224  SIvice       Counter:       4   Parms: VV      M1      
           Vector  Mate for  SIvice       Diagnostic #    223  SIuice   exists 
 Computing Diagnostic #    225  SItaux       Counter:       4   Parms: UU      U1      
           Vector  Mate for  SItaux       Diagnostic #    226  SItauy   exists 
 Computing Diagnostic #    226  SItauy       Counter:       4   Parms: VV      U1      
           Vector  Mate for  SItauy       Diagnostic #    225  SItaux   exists 
 Computing Diagnostic #    285  SIareaN      Counter:       4   Parms: SM      MX      
 Computing Diagnostic #    284  SIheffN      Counter:       4   Parms: SM      MX      
 Computing Diagnostic #    286  SIhsnowN     Counter:       4   Parms: SM      MX      
 Compute Stats, Diag. #    214  SIarea    vol(   0 ): 3.580E+14  Parms: SM      M1      
 Compute Stats, Diag. #    217  SIheff    vol(   0 ): 3.580E+14  Parms: SM      M1      
 Compute Stats, Diag. #    219  SIhsnow   vol(   0 ): 3.580E+14  Parms: SM      M1      
 Compute Stats, Diag. #     83  sIceLoad  vol(   0 ): 3.580E+14  Parms: SM      U1      
 Compute Stats, Diag. #    223  SIuice    vol(   0 ): 3.513E+14  Parms: UU      M1      
 Compute Stats, Diag. #    224  SIvice    vol(   0 ): 3.508E+14  Parms: VV      M1      
 Compute Stats, Diag. #    225  SItaux    vol(   0 ): 3.513E+14  Parms: UU      U1      
 Compute Stats, Diag. #    226  SItauy    vol(   0 ): 3.508E+14  Parms: VV      U1      
 cg2d: Sum(rhs),rhsMax =   5.88017116521276E+01  2.99544630748291E-01
 Compute Stats, Diag. #    214  SIarea    vol(   0 ): 3.580E+14  Parms: SM      M1      
 Compute Stats, Diag. #    217  SIheff    vol(   0 ): 3.580E+14  Parms: SM      M1      
 Compute Stats, Diag. #    219  SIhsnow   vol(   0 ): 3.580E+14  Parms: SM      M1      
 Compute Stats, Diag. #     83  sIceLoad  vol(   0 ): 3.580E+14  Parms: SM      U1      
 Compute Stats, Diag. #    223  SIuice    vol(   0 ): 3.513E+14  Parms: UU      M1      
 Compute Stats, Diag. #    224  SIvice    vol(   0 ): 3.508E+14  Parms: VV      M1      
 Compute Stats, Diag. #    225  SItaux    vol(   0 ): 3.513E+14  Parms: UU      U1      
 Compute Stats, Diag. #    226  SItauy    vol(   0 ): 3.508E+14  Parms: VV      U1      
 cg2d: Sum(rhs),rhsMax =   5.86028944728581E+01  2.99589061934178E-01
 Compute Stats, Diag. #    214  SIarea    vol(   0 ): 3.580E+14  Parms: SM      M1      
 Compute Stats, Diag. #    217  SIheff    vol(   0 ): 3.580E+14  Parms: SM      M1      
 Compute Stats, Diag. #    219  SIhsnow   vol(   0 ): 3.580E+14  Parms: SM      M1      
 Compute Stats, Diag. #     83  sIceLoad  vol(   0 ): 3.580E+14  Parms: SM      U1      
 Compute Stats, Diag. #    223  SIuice    vol(   0 ): 3.513E+14  Parms: UU      M1      
 Compute Stats, Diag. #    224  SIvice    vol(   0 ): 3.508E+14  Parms: VV      M1      
 Compute Stats, Diag. #    225  SItaux    vol(   0 ): 3.513E+14  Parms: UU      U1      
 Compute Stats, Diag. #    226  SItauy    vol(   0 ): 3.508E+14  Parms: VV      U1      
 cg2d: Sum(rhs),rhsMax =   5.83967890096424E+01  2.99579548043924E-01
 Compute Stats, Diag. #    214  SIarea    vol(   0 ): 3.580E+14  Parms: SM      M1      
 Compute Stats, Diag. #    217  SIheff    vol(   0 ): 3.580E+14  Parms: SM      M1      
 Compute Stats, Diag. #    219  SIhsnow   vol(   0 ): 3.580E+14  Parms: SM      M1      
 Compute Stats, Diag. #     83  sIceLoad  vol(   0 ): 3.580E+14  Parms: SM      U1      
 Compute Stats, Diag. #    223  SIuice    vol(   0 ): 3.513E+14  Parms: UU      M1      
 Compute Stats, Diag. #    224  SIvice    vol(   0 ): 3.508E+14  Parms: VV      M1      
 Compute Stats, Diag. #    225  SItaux    vol(   0 ): 3.513E+14  Parms: UU      U1      
 Compute Stats, Diag. #    226  SItauy    vol(   0 ): 3.508E+14  Parms: VV      U1      
 cg2d: Sum(rhs),rhsMax =   5.81893817174881E+01  2.99516790930200E-01
 Computing Diagnostic #     86  oceQnet      Counter:       4   Parms: SM      U1      
 Computing Diagnostic #     87  oceQsw       Counter:       4   Parms: SM      U1      
 Computing Diagnostic #     84  oceFWflx     Counter:       4   Parms: SM      U1      
 Computing Diagnostic #     85  oceSflux     Counter:       4   Parms: SM      U1      
 Computing Diagnostic #     80  oceTAUX      Counter:       4   Parms: UU      U1      
           Vector  Mate for  oceTAUX      Diagnostic #     81  oceTAUY  exists 
 Computing Diagnostic #     81  oceTAUY      Counter:       4   Parms: VV      U1      
           Vector  Mate for  oceTAUY      Diagnostic #     80  oceTAUX  exists 
 Computing Diagnostic #     26  THETA        Counter:       4   Parms: SMR     MR      
 Computing Diagnostic #     27  SALT         Counter:       4   Parms: SMR     MR      
 Computing Diagnostic #     30  UVEL         Counter:       4   Parms: UUR     MR      
           Vector  Mate for  UVEL         Diagnostic #     31  VVEL     exists 
 Computing Diagnostic #     31  VVEL         Counter:       4   Parms: VVR     MR      
           Vector  Mate for  VVEL         Diagnostic #     30  UVEL     exists 
 Computing Diagnostic #    214  SIarea       Counter:       4   Parms: SM      M1      
 Computing Diagnostic #    217  SIheff       Counter:       4   Parms: SM      M1      
 Computing Diagnostic #    219  SIhsnow      Counter:       4   Parms: SM      M1      
 Computing Diagnostic #     83  sIceLoad     Counter:       4   Parms: SM      U1      
 Computing Diagnostic #    223  SIuice       Counter:       4   Parms: UU      M1      
           Vector  Mate for  SIuice       Diagnostic #    224  SIvice   exists 
 Computing Diagnostic #    224  SIvice       Counter:       4   Parms: VV      M1      
           Vector  Mate for  SIvice       Diagnostic #    223  SIuice   exists 
 Computing Diagnostic #    225  SItaux       Counter:       4   Parms: UU      U1      
           Vector  Mate for  SItaux       Diagnostic #    226  SItauy   exists 
 Computing Diagnostic #    226  SItauy       Counter:       4   Parms: VV      U1      
           Vector  Mate for  SItauy       Diagnostic #    225  SItaux   exists 
 Computing Diagnostic #    285  SIareaN      Counter:       4   Parms: SM      MX      
 Computing Diagnostic #    284  SIheffN      Counter:       4   Parms: SM      MX      
 Computing Diagnostic #    286  SIhsnowN     Counter:       4   Parms: SM      MX      
 Compute Stats, Diag. #    214  SIarea    vol(   0 ): 3.580E+14  Parms: SM      M1      
 Compute Stats, Diag. #    217  SIheff    vol(   0 ): 3.580E+14  Parms: SM      M1      
 Compute Stats, Diag. #    219  SIhsnow   vol(   0 ): 3.580E+14  Parms: SM      M1      
 Compute Stats, Diag. #     83  sIceLoad  vol(   0 ): 3.580E+14  Parms: SM      U1      
 Compute Stats, Diag. #    223  SIuice    vol(   0 ): 3.513E+14  Parms: UU      M1      
 Compute Stats, Diag. #    224  SIvice    vol(   0 ): 3.508E+14  Parms: VV      M1      
 Compute Stats, Diag. #    225  SItaux    vol(   0 ): 3.513E+14  Parms: UU      U1      
 Compute Stats, Diag. #    226  SItauy    vol(   0 ): 3.508E+14  Parms: VV      U1      
 cg2d: Sum(rhs),rhsMax =   5.79786143870540E+01  2.99403426413251E-01
 Compute Stats, Diag. #    214  SIarea    vol(   0 ): 3.580E+14  Parms: SM      M1      
 Compute Stats, Diag. #    217  SIheff    vol(   0 ): 3.580E+14  Parms: SM      M1      
 Compute Stats, Diag. #    219  SIhsnow   vol(   0 ): 3.580E+14  Parms: SM      M1      
 Compute Stats, Diag. #     83  sIceLoad  vol(   0 ): 3.580E+14  Parms: SM      U1      
 Compute Stats, Diag. #    223  SIuice    vol(   0 ): 3.513E+14  Parms: UU      M1      
 Compute Stats, Diag. #    224  SIvice    vol(   0 ): 3.508E+14  Parms: VV      M1      
 Compute Stats, Diag. #    225  SItaux    vol(   0 ): 3.513E+14  Parms: UU      U1      
 Compute Stats, Diag. #    226  SItauy    vol(   0 ): 3.508E+14  Parms: VV      U1      
 cg2d: Sum(rhs),rhsMax =   5.77686814185178E+01  2.99242099357439E-01
 Compute Stats, Diag. #    214  SIarea    vol(   0 ): 3.580E+14  Parms: SM      M1      
 Compute Stats, Diag. #    217  SIheff    vol(   0 ): 3.580E+14  Parms: SM      M1      
 Compute Stats, Diag. #    219  SIhsnow   vol(   0 ): 3.580E+14  Parms: SM      M1      
 Compute Stats, Diag. #     83  sIceLoad  vol(   0 ): 3.580E+14  Parms: SM      U1      
 Compute Stats, Diag. #    223  SIuice    vol(   0 ): 3.513E+14  Parms: UU      M1      
 Compute Stats, Diag. #    224  SIvice    vol(   0 ): 3.508E+14  Parms: VV      M1      
 Compute Stats, Diag. #    225  SItaux    vol(   0 ): 3.513E+14  Parms: UU      U1      
 Compute Stats, Diag. #    226  SItauy    vol(   0 ): 3.508E+14  Parms: VV      U1      
 cg2d: Sum(rhs),rhsMax =   5.75576772255108E+01  2.99035856821465E-01
 Compute Stats, Diag. #    214  SIarea    vol(   0 ): 3.580E+14  Parms: SM      M1      
 Compute Stats, Diag. #    217  SIheff    vol(   0 ): 3.580E+14  Parms: SM      M1      
 Compute Stats, Diag. #    219  SIhsnow   vol(   0 ): 3.580E+14  Parms: SM      M1      
 Compute Stats, Diag. #     83  sIceLoad  vol(   0 ): 3.580E+14  Parms: SM      U1      
 Compute Stats, Diag. #    223  SIuice    vol(   0 ): 3.513E+14  Parms: UU      M1      
 Compute Stats, Diag. #    224  SIvice    vol(   0 ): 3.508E+14  Parms: VV      M1      
 Compute Stats, Diag. #    225  SItaux    vol(   0 ): 3.513E+14  Parms: UU      U1      
 Compute Stats, Diag. #    226  SItauy    vol(   0 ): 3.508E+14  Parms: VV      U1      
 cg2d: Sum(rhs),rhsMax =   5.73517290216821E+01  2.98789660221056E-01
(PID.TID 0000.0001)      cg2d_init_res =   2.27413170489072E-01
(PID.TID 0000.0001)      cg2d_iters(min,last) =      -1      29
(PID.TID 0000.0001)      cg2d_last_res =   2.70650943757603E-05
(PID.TID 0000.0001) // =======================================================
(PID.TID 0000.0001) // Begin MONITOR dynamic field statistics
(PID.TID 0000.0001) // =======================================================
(PID.TID 0000.0001) %MON time_tsnumber                =                   144
(PID.TID 0000.0001) %MON time_secondsf                =   1.2960000000000E+05
(PID.TID 0000.0001) %MON dynstat_eta_max              =   1.0863893527766E+00
(PID.TID 0000.0001) %MON dynstat_eta_min              =  -2.7069249064761E+00
(PID.TID 0000.0001) %MON dynstat_eta_mean             =  -1.8142183582249E-03
(PID.TID 0000.0001) %MON dynstat_eta_sd               =   6.7414084144034E-01
(PID.TID 0000.0001) %MON dynstat_eta_del2             =   7.2292499918437E-05
(PID.TID 0000.0001) %MON dynstat_uvel_max             =   7.7584715932519E-01
(PID.TID 0000.0001) %MON dynstat_uvel_min             =  -1.1526670685080E+00
(PID.TID 0000.0001) %MON dynstat_uvel_mean            =   7.7771810981706E-04
(PID.TID 0000.0001) %MON dynstat_uvel_sd              =   2.0628672142000E-02
(PID.TID 0000.0001) %MON dynstat_uvel_del2            =   1.1272363004229E-05
(PID.TID 0000.0001) %MON dynstat_vvel_max             =   1.3934283142633E+00
(PID.TID 0000.0001) %MON dynstat_vvel_min             =  -8.7395058029536E-01
(PID.TID 0000.0001) %MON dynstat_vvel_mean            =   1.1689329494869E-03
(PID.TID 0000.0001) %MON dynstat_vvel_sd              =   2.1745757410327E-02
(PID.TID 0000.0001) %MON dynstat_vvel_del2            =   1.1144218515187E-05
(PID.TID 0000.0001) %MON dynstat_wvel_max             =   3.5471044320894E-03
(PID.TID 0000.0001) %MON dynstat_wvel_min             =  -2.4804481456925E-03
(PID.TID 0000.0001) %MON dynstat_wvel_mean            =   6.2320871467029E-08
(PID.TID 0000.0001) %MON dynstat_wvel_sd              =   2.7259965990825E-05
(PID.TID 0000.0001) %MON dynstat_wvel_del2            =   3.8014519415718E-08
(PID.TID 0000.0001) %MON dynstat_theta_max            =   3.2556674815400E+01
(PID.TID 0000.0001) %MON dynstat_theta_min            =  -2.0419061721351E+00
(PID.TID 0000.0001) %MON dynstat_theta_mean           =   3.5904812953271E+00
(PID.TID 0000.0001) %MON dynstat_theta_sd             =   4.4361947936405E+00
(PID.TID 0000.0001) %MON dynstat_theta_del2           =   1.0159264500978E-04
(PID.TID 0000.0001) %MON dynstat_salt_max             =   4.0711537425870E+01
(PID.TID 0000.0001) %MON dynstat_salt_min             =   1.3848955427206E+01
(PID.TID 0000.0001) %MON dynstat_salt_mean            =   3.4725594912515E+01
(PID.TID 0000.0001) %MON dynstat_salt_sd              =   3.7703899619630E-01
(PID.TID 0000.0001) %MON dynstat_salt_del2            =   3.1598176775399E-05
(PID.TID 0000.0001) %MON dynstat_sst_max              =   3.2556674815400E+01
(PID.TID 0000.0001) %MON dynstat_sst_min              =  -1.8511297282776E+00
(PID.TID 0000.0001) %MON dynstat_sst_mean             =   1.8482503888751E+01
(PID.TID 0000.0001) %MON dynstat_sst_sd               =   1.0129977057415E+01
(PID.TID 0000.0001) %MON dynstat_sst_del2             =   8.3571926664186E-04
(PID.TID 0000.0001) %MON dynstat_sss_max              =   3.9242228708873E+01
(PID.TID 0000.0001) %MON dynstat_sss_min              =   1.3848955427206E+01
(PID.TID 0000.0001) %MON dynstat_sss_mean             =   3.4691548776349E+01
(PID.TID 0000.0001) %MON dynstat_sss_sd               =   1.1362286773131E+00
(PID.TID 0000.0001) %MON dynstat_sss_del2             =   8.5525614948850E-04
(PID.TID 0000.0001) %MON forcing_qnet_max             =   9.8738149709140E+02
(PID.TID 0000.0001) %MON forcing_qnet_min             =  -1.8669962158203E+03
(PID.TID 0000.0001) %MON forcing_qnet_mean            =   4.4358906273790E+01
(PID.TID 0000.0001) %MON forcing_qnet_sd              =   1.7524956007592E+02
(PID.TID 0000.0001) %MON forcing_qnet_del2            =   3.4166540102926E-01
(PID.TID 0000.0001) %MON forcing_qsw_max              =   0.0000000000000E+00
(PID.TID 0000.0001) %MON forcing_qsw_min              =  -1.1055356525363E+02
(PID.TID 0000.0001) %MON forcing_qsw_mean             =  -1.3596781517560E+01
(PID.TID 0000.0001) %MON forcing_qsw_sd               =   2.4873970775736E+01
(PID.TID 0000.0001) %MON forcing_qsw_del2             =   1.9159661078801E-02
(PID.TID 0000.0001) %MON forcing_empmr_max            =   1.8609401304275E-03
(PID.TID 0000.0001) %MON forcing_empmr_min            =  -1.2966759502888E-01
(PID.TID 0000.0001) %MON forcing_empmr_mean           =  -7.4485873621567E-06
(PID.TID 0000.0001) %MON forcing_empmr_sd             =   4.7098095945536E-04
(PID.TID 0000.0001) %MON forcing_empmr_del2           =   7.6921215048819E-06
(PID.TID 0000.0001) %MON forcing_fu_max               =   8.6256176233292E-01
(PID.TID 0000.0001) %MON forcing_fu_min               =  -1.3296442627907E+00
(PID.TID 0000.0001) %MON forcing_fu_mean              =   7.1823684342270E-03
(PID.TID 0000.0001) %MON forcing_fu_sd                =   1.0360846313213E-01
(PID.TID 0000.0001) %MON forcing_fu_del2              =   1.6174441041443E-04
(PID.TID 0000.0001) %MON forcing_fv_max               =   1.3745851516724E+00
(PID.TID 0000.0001) %MON forcing_fv_min               =  -1.1989616751671E+00
(PID.TID 0000.0001) %MON forcing_fv_mean              =  -1.0723943761145E-02
(PID.TID 0000.0001) %MON forcing_fv_sd                =   1.1223433781562E-01
(PID.TID 0000.0001) %MON forcing_fv_del2              =   1.5880631934215E-04
(PID.TID 0000.0001) %MON trAdv_CFL_u_max              =   1.8987971944165E-02
(PID.TID 0000.0001) %MON trAdv_CFL_v_max              =   2.3678462861766E-02
(PID.TID 0000.0001) %MON trAdv_CFL_w_max              =   1.1405390801976E-01
(PID.TID 0000.0001) %MON advcfl_uvel_max              =   1.9070779201315E-02
(PID.TID 0000.0001) %MON advcfl_vvel_max              =   2.4734612473924E-02
(PID.TID 0000.0001) %MON advcfl_wvel_max              =   1.1953166521524E-01
(PID.TID 0000.0001) %MON advcfl_W_hf_max              =   1.2603995641120E-01
(PID.TID 0000.0001) %MON pe_b_mean                    =   5.9780963868534E-04
(PID.TID 0000.0001) %MON ke_max                       =   1.0639673883981E+00
(PID.TID 0000.0001) %MON ke_mean                      =   4.3416369234482E-04
(PID.TID 0000.0001) %MON ke_vol                       =   1.3349972250916E+18
(PID.TID 0000.0001) %MON vort_r_min                   =  -3.1894381277544E-05
(PID.TID 0000.0001) %MON vort_r_max                   =   4.0141268174327E-05
(PID.TID 0000.0001) %MON vort_a_mean                  =  -1.9727864647440E-05
(PID.TID 0000.0001) %MON vort_a_sd                    =   7.4543013593201E-05
(PID.TID 0000.0001) %MON vort_p_mean                  =  -2.1760541144438E-05
(PID.TID 0000.0001) %MON vort_p_sd                    =   9.7246674236465E-05
(PID.TID 0000.0001) %MON surfExpan_theta_mean         =   1.8681583756804E-07
(PID.TID 0000.0001) %MON surfExpan_salt_mean          =   1.7403683824753E-08
(PID.TID 0000.0001) // =======================================================
(PID.TID 0000.0001) // End MONITOR dynamic field statistics
(PID.TID 0000.0001) // =======================================================
(PID.TID 0000.0001) // =======================================================
(PID.TID 0000.0001) // Begin MONITOR SEAICE statistics
(PID.TID 0000.0001) // =======================================================
(PID.TID 0000.0001) %MON seaice_tsnumber              =                   144
(PID.TID 0000.0001) %MON seaice_time_sec              =   1.2960000000000E+05
(PID.TID 0000.0001) %MON seaice_uice_max              =   4.0000000000000E-01
(PID.TID 0000.0001) %MON seaice_uice_min              =  -4.0000000000000E-01
(PID.TID 0000.0001) %MON seaice_uice_mean             =  -8.3054598624025E-03
(PID.TID 0000.0001) %MON seaice_uice_sd               =   1.9802383574176E-01
(PID.TID 0000.0001) %MON seaice_uice_del2             =   2.2931571122150E-04
(PID.TID 0000.0001) %MON seaice_vice_max              =   4.0000000000000E-01
(PID.TID 0000.0001) %MON seaice_vice_min              =  -4.0000000000000E-01
(PID.TID 0000.0001) %MON seaice_vice_mean             =  -2.1960776359499E-02
(PID.TID 0000.0001) %MON seaice_vice_sd               =   2.1302038025672E-01
(PID.TID 0000.0001) %MON seaice_vice_del2             =   2.3932563818061E-04
(PID.TID 0000.0001) %MON seaice_area_max              =   1.0000000000000E+00
(PID.TID 0000.0001) %MON seaice_area_min              =   0.0000000000000E+00
(PID.TID 0000.0001) %MON seaice_area_mean             =   6.9400222531976E-02
(PID.TID 0000.0001) %MON seaice_area_sd               =   2.3583047665096E-01
(PID.TID 0000.0001) %MON seaice_area_del2             =   4.5439929730086E-04
(PID.TID 0000.0001) %MON seaice_heff_max              =   2.5220255278517E+01
(PID.TID 0000.0001) %MON seaice_heff_min              =   0.0000000000000E+00
(PID.TID 0000.0001) %MON seaice_heff_mean             =   2.1621836411655E-01
(PID.TID 0000.0001) %MON seaice_heff_sd               =   1.0705503541500E+00
(PID.TID 0000.0001) %MON seaice_heff_del2             =   3.9058011991983E-03
(PID.TID 0000.0001) %MON seaice_hsnow_max             =   8.3298186080065E+00
(PID.TID 0000.0001) %MON seaice_hsnow_min             =   0.0000000000000E+00
(PID.TID 0000.0001) %MON seaice_hsnow_mean            =   2.4515856577751E-02
(PID.TID 0000.0001) %MON seaice_hsnow_sd              =   1.5764818858911E-01
(PID.TID 0000.0001) %MON seaice_hsnow_del2            =   1.2525645575249E-03
(PID.TID 0000.0001) // =======================================================
(PID.TID 0000.0001) // End MONITOR SEAICE statistics
(PID.TID 0000.0001) // =======================================================
 Computing Diagnostic #     86  oceQnet      Counter:       4   Parms: SM      U1      
 Computing Diagnostic #     87  oceQsw       Counter:       4   Parms: SM      U1      
 Computing Diagnostic #     84  oceFWflx     Counter:       4   Parms: SM      U1      
 Computing Diagnostic #     85  oceSflux     Counter:       4   Parms: SM      U1      
 Computing Diagnostic #     80  oceTAUX      Counter:       4   Parms: UU      U1      
           Vector  Mate for  oceTAUX      Diagnostic #     81  oceTAUY  exists 
 Computing Diagnostic #     81  oceTAUY      Counter:       4   Parms: VV      U1      
           Vector  Mate for  oceTAUY      Diagnostic #     80  oceTAUX  exists 
 Computing Diagnostic #     26  THETA        Counter:       4   Parms: SMR     MR      
 Computing Diagnostic #     27  SALT         Counter:       4   Parms: SMR     MR      
 Computing Diagnostic #     30  UVEL         Counter:       4   Parms: UUR     MR      
           Vector  Mate for  UVEL         Diagnostic #     31  VVEL     exists 
 Computing Diagnostic #     31  VVEL         Counter:       4   Parms: VVR     MR      
           Vector  Mate for  VVEL         Diagnostic #     30  UVEL     exists 
 Computing Diagnostic #    214  SIarea       Counter:       4   Parms: SM      M1      
 Computing Diagnostic #    217  SIheff       Counter:       4   Parms: SM      M1      
 Computing Diagnostic #    219  SIhsnow      Counter:       4   Parms: SM      M1      
 Computing Diagnostic #     83  sIceLoad     Counter:       4   Parms: SM      U1      
 Computing Diagnostic #    223  SIuice       Counter:       4   Parms: UU      M1      
           Vector  Mate for  SIuice       Diagnostic #    224  SIvice   exists 
 Computing Diagnostic #    224  SIvice       Counter:       4   Parms: VV      M1      
           Vector  Mate for  SIvice       Diagnostic #    223  SIuice   exists 
 Computing Diagnostic #    225  SItaux       Counter:       4   Parms: UU      U1      
           Vector  Mate for  SItaux       Diagnostic #    226  SItauy   exists 
 Computing Diagnostic #    226  SItauy       Counter:       4   Parms: VV      U1      
           Vector  Mate for  SItauy       Diagnostic #    225  SItaux   exists 
 Computing Diagnostic #    285  SIareaN      Counter:       4   Parms: SM      MX      
 Computing Diagnostic #    284  SIheffN      Counter:       4   Parms: SM      MX      
 Computing Diagnostic #    286  SIhsnowN     Counter:       4   Parms: SM      MX      
 Compute Stats, Diag. #    214  SIarea    vol(   0 ): 3.580E+14  Parms: SM      M1      
 Compute Stats, Diag. #    217  SIheff    vol(   0 ): 3.580E+14  Parms: SM      M1      
 Compute Stats, Diag. #    219  SIhsnow   vol(   0 ): 3.580E+14  Parms: SM      M1      
 Compute Stats, Diag. #     83  sIceLoad  vol(   0 ): 3.580E+14  Parms: SM      U1      
 Compute Stats, Diag. #    223  SIuice    vol(   0 ): 3.513E+14  Parms: UU      M1      
 Compute Stats, Diag. #    224  SIvice    vol(   0 ): 3.508E+14  Parms: VV      M1      
 Compute Stats, Diag. #    225  SItaux    vol(   0 ): 3.513E+14  Parms: UU      U1      
 Compute Stats, Diag. #    226  SItauy    vol(   0 ): 3.508E+14  Parms: VV      U1      
 cg2d: Sum(rhs),rhsMax =   5.71433932182519E+01  2.98505955126427E-01
 Compute Stats, Diag. #    214  SIarea    vol(   0 ): 3.580E+14  Parms: SM      M1      
 Compute Stats, Diag. #    217  SIheff    vol(   0 ): 3.580E+14  Parms: SM      M1      
 Compute Stats, Diag. #    219  SIhsnow   vol(   0 ): 3.580E+14  Parms: SM      M1      
 Compute Stats, Diag. #     83  sIceLoad  vol(   0 ): 3.580E+14  Parms: SM      U1      
 Compute Stats, Diag. #    223  SIuice    vol(   0 ): 3.513E+14  Parms: UU      M1      
 Compute Stats, Diag. #    224  SIvice    vol(   0 ): 3.508E+14  Parms: VV      M1      
 Compute Stats, Diag. #    225  SItaux    vol(   0 ): 3.513E+14  Parms: UU      U1      
 Compute Stats, Diag. #    226  SItauy    vol(   0 ): 3.508E+14  Parms: VV      U1      
 cg2d: Sum(rhs),rhsMax =   5.69302104723380E+01  2.98190455145600E-01
 Compute Stats, Diag. #    214  SIarea    vol(   0 ): 3.580E+14  Parms: SM      M1      
 Compute Stats, Diag. #    217  SIheff    vol(   0 ): 3.580E+14  Parms: SM      M1      
 Compute Stats, Diag. #    219  SIhsnow   vol(   0 ): 3.580E+14  Parms: SM      M1      
 Compute Stats, Diag. #     83  sIceLoad  vol(   0 ): 3.580E+14  Parms: SM      U1      
 Compute Stats, Diag. #    223  SIuice    vol(   0 ): 3.513E+14  Parms: UU      M1      
 Compute Stats, Diag. #    224  SIvice    vol(   0 ): 3.508E+14  Parms: VV      M1      
 Compute Stats, Diag. #    225  SItaux    vol(   0 ): 3.513E+14  Parms: UU      U1      
 Compute Stats, Diag. #    226  SItauy    vol(   0 ): 3.508E+14  Parms: VV      U1      
 cg2d: Sum(rhs),rhsMax =   5.67149337610711E+01  2.97848059703071E-01
 Compute Stats, Diag. #    214  SIarea    vol(   0 ): 3.580E+14  Parms: SM      M1      
 Compute Stats, Diag. #    217  SIheff    vol(   0 ): 3.580E+14  Parms: SM      M1      
 Compute Stats, Diag. #    219  SIhsnow   vol(   0 ): 3.580E+14  Parms: SM      M1      
 Compute Stats, Diag. #     83  sIceLoad  vol(   0 ): 3.580E+14  Parms: SM      U1      
 Compute Stats, Diag. #    223  SIuice    vol(   0 ): 3.513E+14  Parms: UU      M1      
 Compute Stats, Diag. #    224  SIvice    vol(   0 ): 3.508E+14  Parms: VV      M1      
 Compute Stats, Diag. #    225  SItaux    vol(   0 ): 3.513E+14  Parms: UU      U1      
 Compute Stats, Diag. #    226  SItauy    vol(   0 ): 3.508E+14  Parms: VV      U1      
 cg2d: Sum(rhs),rhsMax =   5.64996223314115E+01  2.97484356872541E-01
 Computing Diagnostic #     86  oceQnet      Counter:       4   Parms: SM      U1      
 Computing Diagnostic #     87  oceQsw       Counter:       4   Parms: SM      U1      
 Computing Diagnostic #     84  oceFWflx     Counter:       4   Parms: SM      U1      
 Computing Diagnostic #     85  oceSflux     Counter:       4   Parms: SM      U1      
 Computing Diagnostic #     80  oceTAUX      Counter:       4   Parms: UU      U1      
           Vector  Mate for  oceTAUX      Diagnostic #     81  oceTAUY  exists 
 Computing Diagnostic #     81  oceTAUY      Counter:       4   Parms: VV      U1      
           Vector  Mate for  oceTAUY      Diagnostic #     80  oceTAUX  exists 
 Computing Diagnostic #     26  THETA        Counter:       4   Parms: SMR     MR      
 Computing Diagnostic #     27  SALT         Counter:       4   Parms: SMR     MR      
 Computing Diagnostic #     30  UVEL         Counter:       4   Parms: UUR     MR      
           Vector  Mate for  UVEL         Diagnostic #     31  VVEL     exists 
 Computing Diagnostic #     31  VVEL         Counter:       4   Parms: VVR     MR      
           Vector  Mate for  VVEL         Diagnostic #     30  UVEL     exists 
 Computing Diagnostic #    214  SIarea       Counter:       4   Parms: SM      M1      
 Computing Diagnostic #    217  SIheff       Counter:       4   Parms: SM      M1      
 Computing Diagnostic #    219  SIhsnow      Counter:       4   Parms: SM      M1      
 Computing Diagnostic #     83  sIceLoad     Counter:       4   Parms: SM      U1      
 Computing Diagnostic #    223  SIuice       Counter:       4   Parms: UU      M1      
           Vector  Mate for  SIuice       Diagnostic #    224  SIvice   exists 
 Computing Diagnostic #    224  SIvice       Counter:       4   Parms: VV      M1      
           Vector  Mate for  SIvice       Diagnostic #    223  SIuice   exists 
 Computing Diagnostic #    225  SItaux       Counter:       4   Parms: UU      U1      
           Vector  Mate for  SItaux       Diagnostic #    226  SItauy   exists 
 Computing Diagnostic #    226  SItauy       Counter:       4   Parms: VV      U1      
           Vector  Mate for  SItauy       Diagnostic #    225  SItaux   exists 
 Computing Diagnostic #    285  SIareaN      Counter:       4   Parms: SM      MX      
 Computing Diagnostic #    284  SIheffN      Counter:       4   Parms: SM      MX      
 Computing Diagnostic #    286  SIhsnowN     Counter:       4   Parms: SM      MX      
 Compute Stats, Diag. #    214  SIarea    vol(   0 ): 3.580E+14  Parms: SM      M1      
 Compute Stats, Diag. #    217  SIheff    vol(   0 ): 3.580E+14  Parms: SM      M1      
 Compute Stats, Diag. #    219  SIhsnow   vol(   0 ): 3.580E+14  Parms: SM      M1      
 Compute Stats, Diag. #     83  sIceLoad  vol(   0 ): 3.580E+14  Parms: SM      U1      
 Compute Stats, Diag. #    223  SIuice    vol(   0 ): 3.513E+14  Parms: UU      M1      
 Compute Stats, Diag. #    224  SIvice    vol(   0 ): 3.508E+14  Parms: VV      M1      
 Compute Stats, Diag. #    225  SItaux    vol(   0 ): 3.513E+14  Parms: UU      U1      
 Compute Stats, Diag. #    226  SItauy    vol(   0 ): 3.508E+14  Parms: VV      U1      
 cg2d: Sum(rhs),rhsMax =   5.62855484030463E+01  2.97103920391991E-01
 Compute Stats, Diag. #    214  SIarea    vol(   0 ): 3.580E+14  Parms: SM      M1      
 Compute Stats, Diag. #    217  SIheff    vol(   0 ): 3.580E+14  Parms: SM      M1      
 Compute Stats, Diag. #    219  SIhsnow   vol(   0 ): 3.580E+14  Parms: SM      M1      
 Compute Stats, Diag. #     83  sIceLoad  vol(   0 ): 3.580E+14  Parms: SM      U1      
 Compute Stats, Diag. #    223  SIuice    vol(   0 ): 3.513E+14  Parms: UU      M1      
 Compute Stats, Diag. #    224  SIvice    vol(   0 ): 3.508E+14  Parms: VV      M1      
 Compute Stats, Diag. #    225  SItaux    vol(   0 ): 3.513E+14  Parms: UU      U1      
 Compute Stats, Diag. #    226  SItauy    vol(   0 ): 3.508E+14  Parms: VV      U1      
 cg2d: Sum(rhs),rhsMax =   5.60718186498598E+01  2.96713793259072E-01
 Compute Stats, Diag. #    214  SIarea    vol(   0 ): 3.580E+14  Parms: SM      M1      
 Compute Stats, Diag. #    217  SIheff    vol(   0 ): 3.580E+14  Parms: SM      M1      
 Compute Stats, Diag. #    219  SIhsnow   vol(   0 ): 3.580E+14  Parms: SM      M1      
 Compute Stats, Diag. #     83  sIceLoad  vol(   0 ): 3.580E+14  Parms: SM      U1      
 Compute Stats, Diag. #    223  SIuice    vol(   0 ): 3.513E+14  Parms: UU      M1      
 Compute Stats, Diag. #    224  SIvice    vol(   0 ): 3.508E+14  Parms: VV      M1      
 Compute Stats, Diag. #    225  SItaux    vol(   0 ): 3.513E+14  Parms: UU      U1      
 Compute Stats, Diag. #    226  SItauy    vol(   0 ): 3.508E+14  Parms: VV      U1      
 cg2d: Sum(rhs),rhsMax =   5.58592634167095E+01  2.96316718731284E-01
 Compute Stats, Diag. #    214  SIarea    vol(   0 ): 3.580E+14  Parms: SM      M1      
 Compute Stats, Diag. #    217  SIheff    vol(   0 ): 3.580E+14  Parms: SM      M1      
 Compute Stats, Diag. #    219  SIhsnow   vol(   0 ): 3.580E+14  Parms: SM      M1      
 Compute Stats, Diag. #     83  sIceLoad  vol(   0 ): 3.580E+14  Parms: SM      U1      
 Compute Stats, Diag. #    223  SIuice    vol(   0 ): 3.513E+14  Parms: UU      M1      
 Compute Stats, Diag. #    224  SIvice    vol(   0 ): 3.508E+14  Parms: VV      M1      
 Compute Stats, Diag. #    225  SItaux    vol(   0 ): 3.513E+14  Parms: UU      U1      
 Compute Stats, Diag. #    226  SItauy    vol(   0 ): 3.508E+14  Parms: VV      U1      
 cg2d: Sum(rhs),rhsMax =   5.56467687698516E+01  2.95919433119626E-01
(PID.TID 0000.0001)      cg2d_init_res =   2.15889414580174E-01
(PID.TID 0000.0001)      cg2d_iters(min,last) =      -1      29
(PID.TID 0000.0001)      cg2d_last_res =   2.47051813169201E-05
(PID.TID 0000.0001) // =======================================================
(PID.TID 0000.0001) // Begin MONITOR dynamic field statistics
(PID.TID 0000.0001) // =======================================================
(PID.TID 0000.0001) %MON time_tsnumber                =                   152
(PID.TID 0000.0001) %MON time_secondsf                =   1.3680000000000E+05
(PID.TID 0000.0001) %MON dynstat_eta_max              =   1.0825280145292E+00
(PID.TID 0000.0001) %MON dynstat_eta_min              =  -2.6564184806041E+00
(PID.TID 0000.0001) %MON dynstat_eta_mean             =  -1.7602850201776E-03
(PID.TID 0000.0001) %MON dynstat_eta_sd               =   6.7172308312250E-01
(PID.TID 0000.0001) %MON dynstat_eta_del2             =   7.1275040775282E-05
(PID.TID 0000.0001) %MON dynstat_uvel_max             =   7.8627036711071E-01
(PID.TID 0000.0001) %MON dynstat_uvel_min             =  -1.1201072737079E+00
(PID.TID 0000.0001) %MON dynstat_uvel_mean            =   8.0772459289918E-04
(PID.TID 0000.0001) %MON dynstat_uvel_sd              =   2.0565937525219E-02
(PID.TID 0000.0001) %MON dynstat_uvel_del2            =   1.0903300175686E-05
(PID.TID 0000.0001) %MON dynstat_vvel_max             =   1.3963377365777E+00
(PID.TID 0000.0001) %MON dynstat_vvel_min             =  -8.6705943638572E-01
(PID.TID 0000.0001) %MON dynstat_vvel_mean            =   1.1030359142603E-03
(PID.TID 0000.0001) %MON dynstat_vvel_sd              =   2.1624768424326E-02
(PID.TID 0000.0001) %MON dynstat_vvel_del2            =   1.0903463565402E-05
(PID.TID 0000.0001) %MON dynstat_wvel_max             =   3.1314596986632E-03
(PID.TID 0000.0001) %MON dynstat_wvel_min             =  -1.9286541538912E-03
(PID.TID 0000.0001) %MON dynstat_wvel_mean            =   4.6540656068417E-08
(PID.TID 0000.0001) %MON dynstat_wvel_sd              =   2.6720022849047E-05
(PID.TID 0000.0001) %MON dynstat_wvel_del2            =   3.5616446053558E-08
(PID.TID 0000.0001) %MON dynstat_theta_max            =   3.2532647972892E+01
(PID.TID 0000.0001) %MON dynstat_theta_min            =  -2.0418459481554E+00
(PID.TID 0000.0001) %MON dynstat_theta_mean           =   3.5904633493007E+00
(PID.TID 0000.0001) %MON dynstat_theta_sd             =   4.4361266760864E+00
(PID.TID 0000.0001) %MON dynstat_theta_del2           =   1.0127966023999E-04
(PID.TID 0000.0001) %MON dynstat_salt_max             =   4.0711537896671E+01
(PID.TID 0000.0001) %MON dynstat_salt_min             =   1.3681163704973E+01
(PID.TID 0000.0001) %MON dynstat_salt_mean            =   3.4725593448096E+01
(PID.TID 0000.0001) %MON dynstat_salt_sd              =   3.7703514350907E-01
(PID.TID 0000.0001) %MON dynstat_salt_del2            =   3.2413997939600E-05
(PID.TID 0000.0001) %MON dynstat_sst_max              =   3.2531876013011E+01
(PID.TID 0000.0001) %MON dynstat_sst_min              =  -1.8480332392728E+00
(PID.TID 0000.0001) %MON dynstat_sst_mean             =   1.8480024260621E+01
(PID.TID 0000.0001) %MON dynstat_sst_sd               =   1.0131342413474E+01
(PID.TID 0000.0001) %MON dynstat_sst_del2             =   8.3427080893538E-04
(PID.TID 0000.0001) %MON dynstat_sss_max              =   3.9231105568291E+01
(PID.TID 0000.0001) %MON dynstat_sss_min              =   1.3681163704973E+01
(PID.TID 0000.0001) %MON dynstat_sss_mean             =   3.4692215474795E+01
(PID.TID 0000.0001) %MON dynstat_sss_sd               =   1.1374481049268E+00
(PID.TID 0000.0001) %MON dynstat_sss_del2             =   9.0321638808965E-04
(PID.TID 0000.0001) %MON forcing_qnet_max             =   1.1853027343750E+03
(PID.TID 0000.0001) %MON forcing_qnet_min             =  -7.4718127441406E+02
(PID.TID 0000.0001) %MON forcing_qnet_mean            =   3.2584773287099E+01
(PID.TID 0000.0001) %MON forcing_qnet_sd              =   1.7827495704367E+02
(PID.TID 0000.0001) %MON forcing_qnet_del2            =   3.3238344158624E-01
(PID.TID 0000.0001) %MON forcing_qsw_max              =   0.0000000000000E+00
(PID.TID 0000.0001) %MON forcing_qsw_min              =  -9.8807813910519E+01
(PID.TID 0000.0001) %MON forcing_qsw_mean             =  -1.4508365153196E+01
(PID.TID 0000.0001) %MON forcing_qsw_sd               =   2.4148098252027E+01
(PID.TID 0000.0001) %MON forcing_qsw_del2             =   2.0445154173374E-02
(PID.TID 0000.0001) %MON forcing_empmr_max            =   1.4176432741806E-03
(PID.TID 0000.0001) %MON forcing_empmr_min            =  -1.2801778316498E-01
(PID.TID 0000.0001) %MON forcing_empmr_mean           =  -7.6853544322431E-06
(PID.TID 0000.0001) %MON forcing_empmr_sd             =   3.9554705425633E-04
(PID.TID 0000.0001) %MON forcing_empmr_del2           =   6.3660184747022E-06
(PID.TID 0000.0001) %MON forcing_fu_max               =   8.2700204849243E-01
(PID.TID 0000.0001) %MON forcing_fu_min               =  -1.3930560946465E+00
(PID.TID 0000.0001) %MON forcing_fu_mean              =   6.3410523993852E-03
(PID.TID 0000.0001) %MON forcing_fu_sd                =   1.0254463986969E-01
(PID.TID 0000.0001) %MON forcing_fu_del2              =   1.6177948158344E-04
(PID.TID 0000.0001) %MON forcing_fv_max               =   1.3561609387398E+00
(PID.TID 0000.0001) %MON forcing_fv_min               =  -1.1369890570641E+00
(PID.TID 0000.0001) %MON forcing_fv_mean              =  -9.8033376924091E-03
(PID.TID 0000.0001) %MON forcing_fv_sd                =   1.1204792737506E-01
(PID.TID 0000.0001) %MON forcing_fv_del2              =   1.5866694048313E-04
(PID.TID 0000.0001) %MON trAdv_CFL_u_max              =   1.8280829331124E-02
(PID.TID 0000.0001) %MON trAdv_CFL_v_max              =   2.3743788756810E-02
(PID.TID 0000.0001) %MON trAdv_CFL_w_max              =   9.9225999461539E-02
(PID.TID 0000.0001) %MON advcfl_uvel_max              =   1.8532080148971E-02
(PID.TID 0000.0001) %MON advcfl_vvel_max              =   2.4786257350618E-02
(PID.TID 0000.0001) %MON advcfl_wvel_max              =   1.0408539495703E-01
(PID.TID 0000.0001) %MON advcfl_W_hf_max              =   1.0984887343621E-01
(PID.TID 0000.0001) %MON pe_b_mean                    =   5.9352909310883E-04
(PID.TID 0000.0001) %MON ke_max                       =   1.0583966562864E+00
(PID.TID 0000.0001) %MON ke_mean                      =   4.3033793976184E-04
(PID.TID 0000.0001) %MON ke_vol                       =   1.3349972443263E+18
(PID.TID 0000.0001) %MON vort_r_min                   =  -3.0830546906128E-05
(PID.TID 0000.0001) %MON vort_r_max                   =   4.0127500829897E-05
(PID.TID 0000.0001) %MON vort_a_mean                  =  -1.9727864647440E-05
(PID.TID 0000.0001) %MON vort_a_sd                    =   7.4543008141028E-05
(PID.TID 0000.0001) %MON vort_p_mean                  =  -2.1760541179062E-05
(PID.TID 0000.0001) %MON vort_p_sd                    =   9.7246888116218E-05
(PID.TID 0000.0001) %MON surfExpan_theta_mean         =  -1.1006881770832E-07
(PID.TID 0000.0001) %MON surfExpan_salt_mean          =   2.2024061641977E-08
(PID.TID 0000.0001) // =======================================================
(PID.TID 0000.0001) // End MONITOR dynamic field statistics
(PID.TID 0000.0001) // =======================================================
(PID.TID 0000.0001) // =======================================================
(PID.TID 0000.0001) // Begin MONITOR SEAICE statistics
(PID.TID 0000.0001) // =======================================================
(PID.TID 0000.0001) %MON seaice_tsnumber              =                   152
(PID.TID 0000.0001) %MON seaice_time_sec              =   1.3680000000000E+05
(PID.TID 0000.0001) %MON seaice_uice_max              =   4.0000000000000E-01
(PID.TID 0000.0001) %MON seaice_uice_min              =  -4.0000000000000E-01
(PID.TID 0000.0001) %MON seaice_uice_mean             =  -8.3054598624025E-03
(PID.TID 0000.0001) %MON seaice_uice_sd               =   1.9802383574176E-01
(PID.TID 0000.0001) %MON seaice_uice_del2             =   2.2931571122150E-04
(PID.TID 0000.0001) %MON seaice_vice_max              =   4.0000000000000E-01
(PID.TID 0000.0001) %MON seaice_vice_min              =  -4.0000000000000E-01
(PID.TID 0000.0001) %MON seaice_vice_mean             =  -2.1960776359499E-02
(PID.TID 0000.0001) %MON seaice_vice_sd               =   2.1302038025672E-01
(PID.TID 0000.0001) %MON seaice_vice_del2             =   2.3932563818061E-04
(PID.TID 0000.0001) %MON seaice_area_max              =   1.0000000000000E+00
(PID.TID 0000.0001) %MON seaice_area_min              =   0.0000000000000E+00
(PID.TID 0000.0001) %MON seaice_area_mean             =   6.9309898385452E-02
(PID.TID 0000.0001) %MON seaice_area_sd               =   2.3571037288534E-01
(PID.TID 0000.0001) %MON seaice_area_del2             =   4.5280950960557E-04
(PID.TID 0000.0001) %MON seaice_heff_max              =   2.5216781244846E+01
(PID.TID 0000.0001) %MON seaice_heff_min              =   0.0000000000000E+00
(PID.TID 0000.0001) %MON seaice_heff_mean             =   2.1615272949625E-01
(PID.TID 0000.0001) %MON seaice_heff_sd               =   1.0704902472287E+00
(PID.TID 0000.0001) %MON seaice_heff_del2             =   3.9048511484683E-03
(PID.TID 0000.0001) %MON seaice_hsnow_max             =   8.3286759765761E+00
(PID.TID 0000.0001) %MON seaice_hsnow_min             =   0.0000000000000E+00
(PID.TID 0000.0001) %MON seaice_hsnow_mean            =   2.4512232652770E-02
(PID.TID 0000.0001) %MON seaice_hsnow_sd              =   1.5762016869244E-01
(PID.TID 0000.0001) %MON seaice_hsnow_del2            =   1.2523433937365E-03
(PID.TID 0000.0001) // =======================================================
(PID.TID 0000.0001) // End MONITOR SEAICE statistics
(PID.TID 0000.0001) // =======================================================
 Computing Diagnostic #     86  oceQnet      Counter:       4   Parms: SM      U1      
 Computing Diagnostic #     87  oceQsw       Counter:       4   Parms: SM      U1      
 Computing Diagnostic #     84  oceFWflx     Counter:       4   Parms: SM      U1      
 Computing Diagnostic #     85  oceSflux     Counter:       4   Parms: SM      U1      
 Computing Diagnostic #     80  oceTAUX      Counter:       4   Parms: UU      U1      
           Vector  Mate for  oceTAUX      Diagnostic #     81  oceTAUY  exists 
 Computing Diagnostic #     81  oceTAUY      Counter:       4   Parms: VV      U1      
           Vector  Mate for  oceTAUY      Diagnostic #     80  oceTAUX  exists 
 Computing Diagnostic #     26  THETA        Counter:       4   Parms: SMR     MR      
 Computing Diagnostic #     27  SALT         Counter:       4   Parms: SMR     MR      
 Computing Diagnostic #     30  UVEL         Counter:       4   Parms: UUR     MR      
           Vector  Mate for  UVEL         Diagnostic #     31  VVEL     exists 
 Computing Diagnostic #     31  VVEL         Counter:       4   Parms: VVR     MR      
           Vector  Mate for  VVEL         Diagnostic #     30  UVEL     exists 
 Computing Diagnostic #    214  SIarea       Counter:       4   Parms: SM      M1      
 Computing Diagnostic #    217  SIheff       Counter:       4   Parms: SM      M1      
 Computing Diagnostic #    219  SIhsnow      Counter:       4   Parms: SM      M1      
 Computing Diagnostic #     83  sIceLoad     Counter:       4   Parms: SM      U1      
 Computing Diagnostic #    223  SIuice       Counter:       4   Parms: UU      M1      
           Vector  Mate for  SIuice       Diagnostic #    224  SIvice   exists 
 Computing Diagnostic #    224  SIvice       Counter:       4   Parms: VV      M1      
           Vector  Mate for  SIvice       Diagnostic #    223  SIuice   exists 
 Computing Diagnostic #    225  SItaux       Counter:       4   Parms: UU      U1      
           Vector  Mate for  SItaux       Diagnostic #    226  SItauy   exists 
 Computing Diagnostic #    226  SItauy       Counter:       4   Parms: VV      U1      
           Vector  Mate for  SItauy       Diagnostic #    225  SItaux   exists 
 Computing Diagnostic #    285  SIareaN      Counter:       4   Parms: SM      MX      
 Computing Diagnostic #    284  SIheffN      Counter:       4   Parms: SM      MX      
 Computing Diagnostic #    286  SIhsnowN     Counter:       4   Parms: SM      MX      
 Compute Stats, Diag. #    214  SIarea    vol(   0 ): 3.580E+14  Parms: SM      M1      
 Compute Stats, Diag. #    217  SIheff    vol(   0 ): 3.580E+14  Parms: SM      M1      
 Compute Stats, Diag. #    219  SIhsnow   vol(   0 ): 3.580E+14  Parms: SM      M1      
 Compute Stats, Diag. #     83  sIceLoad  vol(   0 ): 3.580E+14  Parms: SM      U1      
 Compute Stats, Diag. #    223  SIuice    vol(   0 ): 3.513E+14  Parms: UU      M1      
 Compute Stats, Diag. #    224  SIvice    vol(   0 ): 3.508E+14  Parms: VV      M1      
 Compute Stats, Diag. #    225  SItaux    vol(   0 ): 3.513E+14  Parms: UU      U1      
 Compute Stats, Diag. #    226  SItauy    vol(   0 ): 3.508E+14  Parms: VV      U1      
 cg2d: Sum(rhs),rhsMax =   5.54328839579459E+01  2.95526878211644E-01
 Compute Stats, Diag. #    214  SIarea    vol(   0 ): 3.580E+14  Parms: SM      M1      
 Compute Stats, Diag. #    217  SIheff    vol(   0 ): 3.580E+14  Parms: SM      M1      
 Compute Stats, Diag. #    219  SIhsnow   vol(   0 ): 3.580E+14  Parms: SM      M1      
 Compute Stats, Diag. #     83  sIceLoad  vol(   0 ): 3.580E+14  Parms: SM      U1      
 Compute Stats, Diag. #    223  SIuice    vol(   0 ): 3.513E+14  Parms: UU      M1      
 Compute Stats, Diag. #    224  SIvice    vol(   0 ): 3.508E+14  Parms: VV      M1      
 Compute Stats, Diag. #    225  SItaux    vol(   0 ): 3.513E+14  Parms: UU      U1      
 Compute Stats, Diag. #    226  SItauy    vol(   0 ): 3.508E+14  Parms: VV      U1      
 cg2d: Sum(rhs),rhsMax =   5.52211800287754E+01  2.95143508660476E-01
 Compute Stats, Diag. #    214  SIarea    vol(   0 ): 3.580E+14  Parms: SM      M1      
 Compute Stats, Diag. #    217  SIheff    vol(   0 ): 3.580E+14  Parms: SM      M1      
 Compute Stats, Diag. #    219  SIhsnow   vol(   0 ): 3.580E+14  Parms: SM      M1      
 Compute Stats, Diag. #     83  sIceLoad  vol(   0 ): 3.580E+14  Parms: SM      U1      
 Compute Stats, Diag. #    223  SIuice    vol(   0 ): 3.513E+14  Parms: UU      M1      
 Compute Stats, Diag. #    224  SIvice    vol(   0 ): 3.508E+14  Parms: VV      M1      
 Compute Stats, Diag. #    225  SItaux    vol(   0 ): 3.513E+14  Parms: UU      U1      
 Compute Stats, Diag. #    226  SItauy    vol(   0 ): 3.508E+14  Parms: VV      U1      
 cg2d: Sum(rhs),rhsMax =   5.50104528314236E+01  2.94773687803909E-01
 Compute Stats, Diag. #    214  SIarea    vol(   0 ): 3.580E+14  Parms: SM      M1      
 Compute Stats, Diag. #    217  SIheff    vol(   0 ): 3.580E+14  Parms: SM      M1      
 Compute Stats, Diag. #    219  SIhsnow   vol(   0 ): 3.580E+14  Parms: SM      M1      
 Compute Stats, Diag. #     83  sIceLoad  vol(   0 ): 3.580E+14  Parms: SM      U1      
 Compute Stats, Diag. #    223  SIuice    vol(   0 ): 3.513E+14  Parms: UU      M1      
 Compute Stats, Diag. #    224  SIvice    vol(   0 ): 3.508E+14  Parms: VV      M1      
 Compute Stats, Diag. #    225  SItaux    vol(   0 ): 3.513E+14  Parms: UU      U1      
 Compute Stats, Diag. #    226  SItauy    vol(   0 ): 3.508E+14  Parms: VV      U1      
 cg2d: Sum(rhs),rhsMax =   5.47990209462203E+01  2.94421672532928E-01
 Computing Diagnostic #     86  oceQnet      Counter:       4   Parms: SM      U1      
 Computing Diagnostic #     87  oceQsw       Counter:       4   Parms: SM      U1      
 Computing Diagnostic #     84  oceFWflx     Counter:       4   Parms: SM      U1      
 Computing Diagnostic #     85  oceSflux     Counter:       4   Parms: SM      U1      
 Computing Diagnostic #     80  oceTAUX      Counter:       4   Parms: UU      U1      
           Vector  Mate for  oceTAUX      Diagnostic #     81  oceTAUY  exists 
 Computing Diagnostic #     81  oceTAUY      Counter:       4   Parms: VV      U1      
           Vector  Mate for  oceTAUY      Diagnostic #     80  oceTAUX  exists 
 Computing Diagnostic #     26  THETA        Counter:       4   Parms: SMR     MR      
 Computing Diagnostic #     27  SALT         Counter:       4   Parms: SMR     MR      
 Computing Diagnostic #     30  UVEL         Counter:       4   Parms: UUR     MR      
           Vector  Mate for  UVEL         Diagnostic #     31  VVEL     exists 
 Computing Diagnostic #     31  VVEL         Counter:       4   Parms: VVR     MR      
           Vector  Mate for  VVEL         Diagnostic #     30  UVEL     exists 
 Computing Diagnostic #    214  SIarea       Counter:       4   Parms: SM      M1      
 Computing Diagnostic #    217  SIheff       Counter:       4   Parms: SM      M1      
 Computing Diagnostic #    219  SIhsnow      Counter:       4   Parms: SM      M1      
 Computing Diagnostic #     83  sIceLoad     Counter:       4   Parms: SM      U1      
 Computing Diagnostic #    223  SIuice       Counter:       4   Parms: UU      M1      
           Vector  Mate for  SIuice       Diagnostic #    224  SIvice   exists 
 Computing Diagnostic #    224  SIvice       Counter:       4   Parms: VV      M1      
           Vector  Mate for  SIvice       Diagnostic #    223  SIuice   exists 
 Computing Diagnostic #    225  SItaux       Counter:       4   Parms: UU      U1      
           Vector  Mate for  SItaux       Diagnostic #    226  SItauy   exists 
 Computing Diagnostic #    226  SItauy       Counter:       4   Parms: VV      U1      
           Vector  Mate for  SItauy       Diagnostic #    225  SItaux   exists 
 Computing Diagnostic #    285  SIareaN      Counter:       4   Parms: SM      MX      
 Computing Diagnostic #    284  SIheffN      Counter:       4   Parms: SM      MX      
 Computing Diagnostic #    286  SIhsnowN     Counter:       4   Parms: SM      MX      
 Compute Stats, Diag. #    214  SIarea    vol(   0 ): 3.580E+14  Parms: SM      M1      
 Compute Stats, Diag. #    217  SIheff    vol(   0 ): 3.580E+14  Parms: SM      M1      
 Compute Stats, Diag. #    219  SIhsnow   vol(   0 ): 3.580E+14  Parms: SM      M1      
 Compute Stats, Diag. #     83  sIceLoad  vol(   0 ): 3.580E+14  Parms: SM      U1      
 Compute Stats, Diag. #    223  SIuice    vol(   0 ): 3.513E+14  Parms: UU      M1      
 Compute Stats, Diag. #    224  SIvice    vol(   0 ): 3.508E+14  Parms: VV      M1      
 Compute Stats, Diag. #    225  SItaux    vol(   0 ): 3.513E+14  Parms: UU      U1      
 Compute Stats, Diag. #    226  SItauy    vol(   0 ): 3.508E+14  Parms: VV      U1      
 cg2d: Sum(rhs),rhsMax =   5.45877899735001E+01  2.94090605589912E-01
 Compute Stats, Diag. #    214  SIarea    vol(   0 ): 3.580E+14  Parms: SM      M1      
 Compute Stats, Diag. #    217  SIheff    vol(   0 ): 3.580E+14  Parms: SM      M1      
 Compute Stats, Diag. #    219  SIhsnow   vol(   0 ): 3.580E+14  Parms: SM      M1      
 Compute Stats, Diag. #     83  sIceLoad  vol(   0 ): 3.580E+14  Parms: SM      U1      
 Compute Stats, Diag. #    223  SIuice    vol(   0 ): 3.513E+14  Parms: UU      M1      
 Compute Stats, Diag. #    224  SIvice    vol(   0 ): 3.508E+14  Parms: VV      M1      
 Compute Stats, Diag. #    225  SItaux    vol(   0 ): 3.513E+14  Parms: UU      U1      
 Compute Stats, Diag. #    226  SItauy    vol(   0 ): 3.508E+14  Parms: VV      U1      
 cg2d: Sum(rhs),rhsMax =   5.43803852036813E+01  2.93783774770483E-01
 Compute Stats, Diag. #    214  SIarea    vol(   0 ): 3.580E+14  Parms: SM      M1      
 Compute Stats, Diag. #    217  SIheff    vol(   0 ): 3.580E+14  Parms: SM      M1      
 Compute Stats, Diag. #    219  SIhsnow   vol(   0 ): 3.580E+14  Parms: SM      M1      
 Compute Stats, Diag. #     83  sIceLoad  vol(   0 ): 3.580E+14  Parms: SM      U1      
 Compute Stats, Diag. #    223  SIuice    vol(   0 ): 3.513E+14  Parms: UU      M1      
 Compute Stats, Diag. #    224  SIvice    vol(   0 ): 3.508E+14  Parms: VV      M1      
 Compute Stats, Diag. #    225  SItaux    vol(   0 ): 3.513E+14  Parms: UU      U1      
 Compute Stats, Diag. #    226  SItauy    vol(   0 ): 3.508E+14  Parms: VV      U1      
 cg2d: Sum(rhs),rhsMax =   5.41723675554935E+01  2.93504459194436E-01
 Compute Stats, Diag. #    214  SIarea    vol(   0 ): 3.580E+14  Parms: SM      M1      
 Compute Stats, Diag. #    217  SIheff    vol(   0 ): 3.580E+14  Parms: SM      M1      
 Compute Stats, Diag. #    219  SIhsnow   vol(   0 ): 3.580E+14  Parms: SM      M1      
 Compute Stats, Diag. #     83  sIceLoad  vol(   0 ): 3.580E+14  Parms: SM      U1      
 Compute Stats, Diag. #    223  SIuice    vol(   0 ): 3.513E+14  Parms: UU      M1      
 Compute Stats, Diag. #    224  SIvice    vol(   0 ): 3.508E+14  Parms: VV      M1      
 Compute Stats, Diag. #    225  SItaux    vol(   0 ): 3.513E+14  Parms: UU      U1      
 Compute Stats, Diag. #    226  SItauy    vol(   0 ): 3.508E+14  Parms: VV      U1      
 cg2d: Sum(rhs),rhsMax =   5.39624916013527E+01  2.93253378415598E-01
(PID.TID 0000.0001)      cg2d_init_res =   1.78141725300696E-01
(PID.TID 0000.0001)      cg2d_iters(min,last) =      -1      28
(PID.TID 0000.0001)      cg2d_last_res =   2.28710591794739E-05
(PID.TID 0000.0001) // =======================================================
(PID.TID 0000.0001) // Begin MONITOR dynamic field statistics
(PID.TID 0000.0001) // =======================================================
(PID.TID 0000.0001) %MON time_tsnumber                =                   160
(PID.TID 0000.0001) %MON time_secondsf                =   1.4400000000000E+05
(PID.TID 0000.0001) %MON dynstat_eta_max              =   1.0790414980236E+00
(PID.TID 0000.0001) %MON dynstat_eta_min              =  -2.6565229810585E+00
(PID.TID 0000.0001) %MON dynstat_eta_mean             =  -1.7070059541137E-03
(PID.TID 0000.0001) %MON dynstat_eta_sd               =   6.6938774829101E-01
(PID.TID 0000.0001) %MON dynstat_eta_del2             =   7.0304238506572E-05
(PID.TID 0000.0001) %MON dynstat_uvel_max             =   7.9545390020119E-01
(PID.TID 0000.0001) %MON dynstat_uvel_min             =  -1.0779917384320E+00
(PID.TID 0000.0001) %MON dynstat_uvel_mean            =   8.2275588049396E-04
(PID.TID 0000.0001) %MON dynstat_uvel_sd              =   2.0488283690667E-02
(PID.TID 0000.0001) %MON dynstat_uvel_del2            =   1.0560560301320E-05
(PID.TID 0000.0001) %MON dynstat_vvel_max             =   1.3919621911494E+00
(PID.TID 0000.0001) %MON dynstat_vvel_min             =  -8.5801106789275E-01
(PID.TID 0000.0001) %MON dynstat_vvel_mean            =   1.0384250186817E-03
(PID.TID 0000.0001) %MON dynstat_vvel_sd              =   2.1514744851306E-02
(PID.TID 0000.0001) %MON dynstat_vvel_del2            =   1.0660046465852E-05
(PID.TID 0000.0001) %MON dynstat_wvel_max             =   2.6650099742903E-03
(PID.TID 0000.0001) %MON dynstat_wvel_min             =  -1.7642331055833E-03
(PID.TID 0000.0001) %MON dynstat_wvel_mean            =   3.0666852939746E-08
(PID.TID 0000.0001) %MON dynstat_wvel_sd              =   2.6270080627700E-05
(PID.TID 0000.0001) %MON dynstat_wvel_del2            =   3.3346194434111E-08
(PID.TID 0000.0001) %MON dynstat_theta_max            =   3.2526954784896E+01
(PID.TID 0000.0001) %MON dynstat_theta_min            =  -2.0417957320579E+00
(PID.TID 0000.0001) %MON dynstat_theta_mean           =   3.5904505721940E+00
(PID.TID 0000.0001) %MON dynstat_theta_sd             =   4.4360738278918E+00
(PID.TID 0000.0001) %MON dynstat_theta_del2           =   1.0097702280924E-04
(PID.TID 0000.0001) %MON dynstat_salt_max             =   4.0711538632003E+01
(PID.TID 0000.0001) %MON dynstat_salt_min             =   1.3561933879024E+01
(PID.TID 0000.0001) %MON dynstat_salt_mean            =   3.4725592237756E+01
(PID.TID 0000.0001) %MON dynstat_salt_sd              =   3.7703165026981E-01
(PID.TID 0000.0001) %MON dynstat_salt_del2            =   3.2793542481833E-05
(PID.TID 0000.0001) %MON dynstat_sst_max              =   3.2506991596578E+01
(PID.TID 0000.0001) %MON dynstat_sst_min              =  -1.8451095183117E+00
(PID.TID 0000.0001) %MON dynstat_sst_mean             =   1.8478994581527E+01
(PID.TID 0000.0001) %MON dynstat_sst_sd               =   1.0132369819771E+01
(PID.TID 0000.0001) %MON dynstat_sst_del2             =   8.3302118574419E-04
(PID.TID 0000.0001) %MON dynstat_sss_max              =   3.9220956071167E+01
(PID.TID 0000.0001) %MON dynstat_sss_min              =   1.3561933879024E+01
(PID.TID 0000.0001) %MON dynstat_sss_mean             =   3.4692781503399E+01
(PID.TID 0000.0001) %MON dynstat_sss_sd               =   1.1384190119863E+00
(PID.TID 0000.0001) %MON dynstat_sss_del2             =   9.2564829975464E-04
(PID.TID 0000.0001) %MON forcing_qnet_max             =   1.2511992187500E+03
(PID.TID 0000.0001) %MON forcing_qnet_min             =  -9.4538584045190E+02
(PID.TID 0000.0001) %MON forcing_qnet_mean            =   2.3161837967392E+01
(PID.TID 0000.0001) %MON forcing_qnet_sd              =   1.9438653140392E+02
(PID.TID 0000.0001) %MON forcing_qnet_del2            =   3.2445941245084E-01
(PID.TID 0000.0001) %MON forcing_qsw_max              =   0.0000000000000E+00
(PID.TID 0000.0001) %MON forcing_qsw_min              =  -1.0454966483233E+02
(PID.TID 0000.0001) %MON forcing_qsw_mean             =  -1.5608366657736E+01
(PID.TID 0000.0001) %MON forcing_qsw_sd               =   2.7181646325539E+01
(PID.TID 0000.0001) %MON forcing_qsw_del2             =   2.1000157157572E-02
(PID.TID 0000.0001) %MON forcing_empmr_max            =   1.3241916894913E-03
(PID.TID 0000.0001) %MON forcing_empmr_min            =  -8.7071932852268E-02
(PID.TID 0000.0001) %MON forcing_empmr_mean           =  -7.5906434265203E-06
(PID.TID 0000.0001) %MON forcing_empmr_sd             =   2.9773022159996E-04
(PID.TID 0000.0001) %MON forcing_empmr_del2           =   4.0822730225175E-06
(PID.TID 0000.0001) %MON forcing_fu_max               =   7.9317036271095E-01
(PID.TID 0000.0001) %MON forcing_fu_min               =  -1.3898734450340E+00
(PID.TID 0000.0001) %MON forcing_fu_mean              =   5.4426632772749E-03
(PID.TID 0000.0001) %MON forcing_fu_sd                =   1.0181625978514E-01
(PID.TID 0000.0001) %MON forcing_fu_del2              =   1.6070451299022E-04
(PID.TID 0000.0001) %MON forcing_fv_max               =   1.4203128814697E+00
(PID.TID 0000.0001) %MON forcing_fv_min               =  -1.0469080813585E+00
(PID.TID 0000.0001) %MON forcing_fv_mean              =  -8.6122777575488E-03
(PID.TID 0000.0001) %MON forcing_fv_sd                =   1.1179002951995E-01
(PID.TID 0000.0001) %MON forcing_fv_del2              =   1.5826504866527E-04
(PID.TID 0000.0001) %MON trAdv_CFL_u_max              =   1.7938923633071E-02
(PID.TID 0000.0001) %MON trAdv_CFL_v_max              =   2.3687487617640E-02
(PID.TID 0000.0001) %MON trAdv_CFL_w_max              =   8.2788322578450E-02
(PID.TID 0000.0001) %MON advcfl_uvel_max              =   1.7835282178303E-02
(PID.TID 0000.0001) %MON advcfl_vvel_max              =   2.4708587463029E-02
(PID.TID 0000.0001) %MON advcfl_wvel_max              =   8.6962628358433E-02
(PID.TID 0000.0001) %MON advcfl_W_hf_max              =   9.1880518132657E-02
(PID.TID 0000.0001) %MON pe_b_mean                    =   5.8940907793430E-04
(PID.TID 0000.0001) %MON ke_max                       =   1.0415759582781E+00
(PID.TID 0000.0001) %MON ke_mean                      =   4.2645709311489E-04
(PID.TID 0000.0001) %MON ke_vol                       =   1.3349972634306E+18
(PID.TID 0000.0001) %MON vort_r_min                   =  -2.9478181010404E-05
(PID.TID 0000.0001) %MON vort_r_max                   =   3.9896800227634E-05
(PID.TID 0000.0001) %MON vort_a_mean                  =  -1.9727864647440E-05
(PID.TID 0000.0001) %MON vort_a_sd                    =   7.4543001548349E-05
(PID.TID 0000.0001) %MON vort_p_mean                  =  -2.1760540978893E-05
(PID.TID 0000.0001) %MON vort_p_sd                    =   9.7247056854798E-05
(PID.TID 0000.0001) %MON surfExpan_theta_mean         =  -2.8286662918401E-07
(PID.TID 0000.0001) %MON surfExpan_salt_mean          =   2.3669740899400E-08
(PID.TID 0000.0001) // =======================================================
(PID.TID 0000.0001) // End MONITOR dynamic field statistics
(PID.TID 0000.0001) // =======================================================
(PID.TID 0000.0001) // =======================================================
(PID.TID 0000.0001) // Begin MONITOR SEAICE statistics
(PID.TID 0000.0001) // =======================================================
(PID.TID 0000.0001) %MON seaice_tsnumber              =                   160
(PID.TID 0000.0001) %MON seaice_time_sec              =   1.4400000000000E+05
(PID.TID 0000.0001) %MON seaice_uice_max              =   4.0000000000000E-01
(PID.TID 0000.0001) %MON seaice_uice_min              =  -4.0000000000000E-01
(PID.TID 0000.0001) %MON seaice_uice_mean             =  -8.3054598624025E-03
(PID.TID 0000.0001) %MON seaice_uice_sd               =   1.9802383574176E-01
(PID.TID 0000.0001) %MON seaice_uice_del2             =   2.2931571122150E-04
(PID.TID 0000.0001) %MON seaice_vice_max              =   4.0000000000000E-01
(PID.TID 0000.0001) %MON seaice_vice_min              =  -4.0000000000000E-01
(PID.TID 0000.0001) %MON seaice_vice_mean             =  -2.1960776359499E-02
(PID.TID 0000.0001) %MON seaice_vice_sd               =   2.1302038025672E-01
(PID.TID 0000.0001) %MON seaice_vice_del2             =   2.3932563818061E-04
(PID.TID 0000.0001) %MON seaice_area_max              =   1.0000000000000E+00
(PID.TID 0000.0001) %MON seaice_area_min              =   0.0000000000000E+00
(PID.TID 0000.0001) %MON seaice_area_mean             =   6.9224347888161E-02
(PID.TID 0000.0001) %MON seaice_area_sd               =   2.3559353626897E-01
(PID.TID 0000.0001) %MON seaice_area_del2             =   4.5120413657000E-04
(PID.TID 0000.0001) %MON seaice_heff_max              =   2.5213275263086E+01
(PID.TID 0000.0001) %MON seaice_heff_min              =   0.0000000000000E+00
(PID.TID 0000.0001) %MON seaice_heff_mean             =   2.1608726263644E-01
(PID.TID 0000.0001) %MON seaice_heff_sd               =   1.0704246517719E+00
(PID.TID 0000.0001) %MON seaice_heff_del2             =   3.9039101633587E-03
(PID.TID 0000.0001) %MON seaice_hsnow_max             =   8.3275221371441E+00
(PID.TID 0000.0001) %MON seaice_hsnow_min             =   0.0000000000000E+00
(PID.TID 0000.0001) %MON seaice_hsnow_mean            =   2.4506375190312E-02
(PID.TID 0000.0001) %MON seaice_hsnow_sd              =   1.5758973830110E-01
(PID.TID 0000.0001) %MON seaice_hsnow_del2            =   1.2521284081007E-03
(PID.TID 0000.0001) // =======================================================
(PID.TID 0000.0001) // End MONITOR SEAICE statistics
(PID.TID 0000.0001) // =======================================================
 Computing Diagnostic #     86  oceQnet      Counter:       4   Parms: SM      U1      
 Computing Diagnostic #     87  oceQsw       Counter:       4   Parms: SM      U1      
 Computing Diagnostic #     84  oceFWflx     Counter:       4   Parms: SM      U1      
 Computing Diagnostic #     85  oceSflux     Counter:       4   Parms: SM      U1      
 Computing Diagnostic #     80  oceTAUX      Counter:       4   Parms: UU      U1      
           Vector  Mate for  oceTAUX      Diagnostic #     81  oceTAUY  exists 
 Computing Diagnostic #     81  oceTAUY      Counter:       4   Parms: VV      U1      
           Vector  Mate for  oceTAUY      Diagnostic #     80  oceTAUX  exists 
 Computing Diagnostic #     26  THETA        Counter:       4   Parms: SMR     MR      
 Computing Diagnostic #     27  SALT         Counter:       4   Parms: SMR     MR      
 Computing Diagnostic #     30  UVEL         Counter:       4   Parms: UUR     MR      
           Vector  Mate for  UVEL         Diagnostic #     31  VVEL     exists 
 Computing Diagnostic #     31  VVEL         Counter:       4   Parms: VVR     MR      
           Vector  Mate for  VVEL         Diagnostic #     30  UVEL     exists 
 Computing Diagnostic #    214  SIarea       Counter:       4   Parms: SM      M1      
 Computing Diagnostic #    217  SIheff       Counter:       4   Parms: SM      M1      
 Computing Diagnostic #    219  SIhsnow      Counter:       4   Parms: SM      M1      
 Computing Diagnostic #     83  sIceLoad     Counter:       4   Parms: SM      U1      
 Computing Diagnostic #    223  SIuice       Counter:       4   Parms: UU      M1      
           Vector  Mate for  SIuice       Diagnostic #    224  SIvice   exists 
 Computing Diagnostic #    224  SIvice       Counter:       4   Parms: VV      M1      
           Vector  Mate for  SIvice       Diagnostic #    223  SIuice   exists 
 Computing Diagnostic #    225  SItaux       Counter:       4   Parms: UU      U1      
           Vector  Mate for  SItaux       Diagnostic #    226  SItauy   exists 
 Computing Diagnostic #    226  SItauy       Counter:       4   Parms: VV      U1      
           Vector  Mate for  SItauy       Diagnostic #    225  SItaux   exists 
 Computing Diagnostic #    285  SIareaN      Counter:       4   Parms: SM      MX      
 Computing Diagnostic #    284  SIheffN      Counter:       4   Parms: SM      MX      
 Computing Diagnostic #    286  SIhsnowN     Counter:       4   Parms: SM      MX      
 Compute Stats, Diag. #    214  SIarea    vol(   0 ): 3.580E+14  Parms: SM      M1      
 Compute Stats, Diag. #    217  SIheff    vol(   0 ): 3.580E+14  Parms: SM      M1      
 Compute Stats, Diag. #    219  SIhsnow   vol(   0 ): 3.580E+14  Parms: SM      M1      
 Compute Stats, Diag. #     83  sIceLoad  vol(   0 ): 3.580E+14  Parms: SM      U1      
 Compute Stats, Diag. #    223  SIuice    vol(   0 ): 3.513E+14  Parms: UU      M1      
 Compute Stats, Diag. #    224  SIvice    vol(   0 ): 3.508E+14  Parms: VV      M1      
 Compute Stats, Diag. #    225  SItaux    vol(   0 ): 3.513E+14  Parms: UU      U1      
 Compute Stats, Diag. #    226  SItauy    vol(   0 ): 3.508E+14  Parms: VV      U1      
 cg2d: Sum(rhs),rhsMax =   5.37570954044502E+01  2.93033332373965E-01
 Compute Stats, Diag. #    214  SIarea    vol(   0 ): 3.580E+14  Parms: SM      M1      
 Compute Stats, Diag. #    217  SIheff    vol(   0 ): 3.580E+14  Parms: SM      M1      
 Compute Stats, Diag. #    219  SIhsnow   vol(   0 ): 3.580E+14  Parms: SM      M1      
 Compute Stats, Diag. #     83  sIceLoad  vol(   0 ): 3.580E+14  Parms: SM      U1      
 Compute Stats, Diag. #    223  SIuice    vol(   0 ): 3.513E+14  Parms: UU      M1      
 Compute Stats, Diag. #    224  SIvice    vol(   0 ): 3.508E+14  Parms: VV      M1      
 Compute Stats, Diag. #    225  SItaux    vol(   0 ): 3.513E+14  Parms: UU      U1      
 Compute Stats, Diag. #    226  SItauy    vol(   0 ): 3.508E+14  Parms: VV      U1      
 cg2d: Sum(rhs),rhsMax =   5.35529435972656E+01  2.92845366471953E-01
 Compute Stats, Diag. #    214  SIarea    vol(   0 ): 3.580E+14  Parms: SM      M1      
 Compute Stats, Diag. #    217  SIheff    vol(   0 ): 3.580E+14  Parms: SM      M1      
 Compute Stats, Diag. #    219  SIhsnow   vol(   0 ): 3.580E+14  Parms: SM      M1      
 Compute Stats, Diag. #     83  sIceLoad  vol(   0 ): 3.580E+14  Parms: SM      U1      
 Compute Stats, Diag. #    223  SIuice    vol(   0 ): 3.513E+14  Parms: UU      M1      
 Compute Stats, Diag. #    224  SIvice    vol(   0 ): 3.508E+14  Parms: VV      M1      
 Compute Stats, Diag. #    225  SItaux    vol(   0 ): 3.513E+14  Parms: UU      U1      
 Compute Stats, Diag. #    226  SItauy    vol(   0 ): 3.508E+14  Parms: VV      U1      
 cg2d: Sum(rhs),rhsMax =   5.33457788379031E+01  2.92690509499242E-01
 Compute Stats, Diag. #    214  SIarea    vol(   0 ): 3.580E+14  Parms: SM      M1      
 Compute Stats, Diag. #    217  SIheff    vol(   0 ): 3.580E+14  Parms: SM      M1      
 Compute Stats, Diag. #    219  SIhsnow   vol(   0 ): 3.580E+14  Parms: SM      M1      
 Compute Stats, Diag. #     83  sIceLoad  vol(   0 ): 3.580E+14  Parms: SM      U1      
 Compute Stats, Diag. #    223  SIuice    vol(   0 ): 3.513E+14  Parms: UU      M1      
 Compute Stats, Diag. #    224  SIvice    vol(   0 ): 3.508E+14  Parms: VV      M1      
 Compute Stats, Diag. #    225  SItaux    vol(   0 ): 3.513E+14  Parms: UU      U1      
 Compute Stats, Diag. #    226  SItauy    vol(   0 ): 3.508E+14  Parms: VV      U1      
 cg2d: Sum(rhs),rhsMax =   5.31347997984803E+01  2.92568869367908E-01
 Computing Diagnostic #     86  oceQnet      Counter:       4   Parms: SM      U1      
 Computing Diagnostic #     87  oceQsw       Counter:       4   Parms: SM      U1      
 Computing Diagnostic #     84  oceFWflx     Counter:       4   Parms: SM      U1      
 Computing Diagnostic #     85  oceSflux     Counter:       4   Parms: SM      U1      
 Computing Diagnostic #     80  oceTAUX      Counter:       4   Parms: UU      U1      
           Vector  Mate for  oceTAUX      Diagnostic #     81  oceTAUY  exists 
 Computing Diagnostic #     81  oceTAUY      Counter:       4   Parms: VV      U1      
           Vector  Mate for  oceTAUY      Diagnostic #     80  oceTAUX  exists 
 Computing Diagnostic #     26  THETA        Counter:       4   Parms: SMR     MR      
 Computing Diagnostic #     27  SALT         Counter:       4   Parms: SMR     MR      
 Computing Diagnostic #     30  UVEL         Counter:       4   Parms: UUR     MR      
           Vector  Mate for  UVEL         Diagnostic #     31  VVEL     exists 
 Computing Diagnostic #     31  VVEL         Counter:       4   Parms: VVR     MR      
           Vector  Mate for  VVEL         Diagnostic #     30  UVEL     exists 
 Computing Diagnostic #    214  SIarea       Counter:       4   Parms: SM      M1      
 Computing Diagnostic #    217  SIheff       Counter:       4   Parms: SM      M1      
 Computing Diagnostic #    219  SIhsnow      Counter:       4   Parms: SM      M1      
 Computing Diagnostic #     83  sIceLoad     Counter:       4   Parms: SM      U1      
 Computing Diagnostic #    223  SIuice       Counter:       4   Parms: UU      M1      
           Vector  Mate for  SIuice       Diagnostic #    224  SIvice   exists 
 Computing Diagnostic #    224  SIvice       Counter:       4   Parms: VV      M1      
           Vector  Mate for  SIvice       Diagnostic #    223  SIuice   exists 
 Computing Diagnostic #    225  SItaux       Counter:       4   Parms: UU      U1      
           Vector  Mate for  SItaux       Diagnostic #    226  SItauy   exists 
 Computing Diagnostic #    226  SItauy       Counter:       4   Parms: VV      U1      
           Vector  Mate for  SItauy       Diagnostic #    225  SItaux   exists 
 Computing Diagnostic #    285  SIareaN      Counter:       4   Parms: SM      MX      
 Computing Diagnostic #    284  SIheffN      Counter:       4   Parms: SM      MX      
 Computing Diagnostic #    286  SIhsnowN     Counter:       4   Parms: SM      MX      
 Compute Stats, Diag. #    214  SIarea    vol(   0 ): 3.580E+14  Parms: SM      M1      
 Compute Stats, Diag. #    217  SIheff    vol(   0 ): 3.580E+14  Parms: SM      M1      
 Compute Stats, Diag. #    219  SIhsnow   vol(   0 ): 3.580E+14  Parms: SM      M1      
 Compute Stats, Diag. #     83  sIceLoad  vol(   0 ): 3.580E+14  Parms: SM      U1      
 Compute Stats, Diag. #    223  SIuice    vol(   0 ): 3.513E+14  Parms: UU      M1      
 Compute Stats, Diag. #    224  SIvice    vol(   0 ): 3.508E+14  Parms: VV      M1      
 Compute Stats, Diag. #    225  SItaux    vol(   0 ): 3.513E+14  Parms: UU      U1      
 Compute Stats, Diag. #    226  SItauy    vol(   0 ): 3.508E+14  Parms: VV      U1      
 cg2d: Sum(rhs),rhsMax =   5.29236082024988E+01  2.92479943079312E-01
 Compute Stats, Diag. #    214  SIarea    vol(   0 ): 3.580E+14  Parms: SM      M1      
 Compute Stats, Diag. #    217  SIheff    vol(   0 ): 3.580E+14  Parms: SM      M1      
 Compute Stats, Diag. #    219  SIhsnow   vol(   0 ): 3.580E+14  Parms: SM      M1      
 Compute Stats, Diag. #     83  sIceLoad  vol(   0 ): 3.580E+14  Parms: SM      U1      
 Compute Stats, Diag. #    223  SIuice    vol(   0 ): 3.513E+14  Parms: UU      M1      
 Compute Stats, Diag. #    224  SIvice    vol(   0 ): 3.508E+14  Parms: VV      M1      
 Compute Stats, Diag. #    225  SItaux    vol(   0 ): 3.513E+14  Parms: UU      U1      
 Compute Stats, Diag. #    226  SItauy    vol(   0 ): 3.508E+14  Parms: VV      U1      
 cg2d: Sum(rhs),rhsMax =   5.27163355945593E+01  2.92423678293910E-01
 Compute Stats, Diag. #    214  SIarea    vol(   0 ): 3.580E+14  Parms: SM      M1      
 Compute Stats, Diag. #    217  SIheff    vol(   0 ): 3.580E+14  Parms: SM      M1      
 Compute Stats, Diag. #    219  SIhsnow   vol(   0 ): 3.580E+14  Parms: SM      M1      
 Compute Stats, Diag. #     83  sIceLoad  vol(   0 ): 3.580E+14  Parms: SM      U1      
 Compute Stats, Diag. #    223  SIuice    vol(   0 ): 3.513E+14  Parms: UU      M1      
 Compute Stats, Diag. #    224  SIvice    vol(   0 ): 3.508E+14  Parms: VV      M1      
 Compute Stats, Diag. #    225  SItaux    vol(   0 ): 3.513E+14  Parms: UU      U1      
 Compute Stats, Diag. #    226  SItauy    vol(   0 ): 3.508E+14  Parms: VV      U1      
 cg2d: Sum(rhs),rhsMax =   5.25090297767595E+01  2.92398899304818E-01
 Compute Stats, Diag. #    214  SIarea    vol(   0 ): 3.580E+14  Parms: SM      M1      
 Compute Stats, Diag. #    217  SIheff    vol(   0 ): 3.580E+14  Parms: SM      M1      
 Compute Stats, Diag. #    219  SIhsnow   vol(   0 ): 3.580E+14  Parms: SM      M1      
 Compute Stats, Diag. #     83  sIceLoad  vol(   0 ): 3.580E+14  Parms: SM      U1      
 Compute Stats, Diag. #    223  SIuice    vol(   0 ): 3.513E+14  Parms: UU      M1      
 Compute Stats, Diag. #    224  SIvice    vol(   0 ): 3.508E+14  Parms: VV      M1      
 Compute Stats, Diag. #    225  SItaux    vol(   0 ): 3.513E+14  Parms: UU      U1      
 Compute Stats, Diag. #    226  SItauy    vol(   0 ): 3.508E+14  Parms: VV      U1      
 cg2d: Sum(rhs),rhsMax =   5.22962188436355E+01  2.92404357401562E-01
(PID.TID 0000.0001)      cg2d_init_res =   1.43132273992385E-01
(PID.TID 0000.0001)      cg2d_iters(min,last) =      -1      28
(PID.TID 0000.0001)      cg2d_last_res =   2.20311991431098E-05
(PID.TID 0000.0001) // =======================================================
(PID.TID 0000.0001) // Begin MONITOR dynamic field statistics
(PID.TID 0000.0001) // =======================================================
(PID.TID 0000.0001) %MON time_tsnumber                =                   168
(PID.TID 0000.0001) %MON time_secondsf                =   1.5120000000000E+05
(PID.TID 0000.0001) %MON dynstat_eta_max              =   1.0775348340325E+00
(PID.TID 0000.0001) %MON dynstat_eta_min              =  -2.6795559738669E+00
(PID.TID 0000.0001) %MON dynstat_eta_mean             =  -1.6542964250650E-03
(PID.TID 0000.0001) %MON dynstat_eta_sd               =   6.6733073099467E-01
(PID.TID 0000.0001) %MON dynstat_eta_del2             =   6.9499588289446E-05
(PID.TID 0000.0001) %MON dynstat_uvel_max             =   8.0439786213270E-01
(PID.TID 0000.0001) %MON dynstat_uvel_min             =  -1.0333934248030E+00
(PID.TID 0000.0001) %MON dynstat_uvel_mean            =   8.2145510548681E-04
(PID.TID 0000.0001) %MON dynstat_uvel_sd              =   2.0413533721244E-02
(PID.TID 0000.0001) %MON dynstat_uvel_del2            =   1.0254172147430E-05
(PID.TID 0000.0001) %MON dynstat_vvel_max             =   1.3846560189127E+00
(PID.TID 0000.0001) %MON dynstat_vvel_min             =  -8.4906930866970E-01
(PID.TID 0000.0001) %MON dynstat_vvel_mean            =   9.9138574831342E-04
(PID.TID 0000.0001) %MON dynstat_vvel_sd              =   2.1431036762966E-02
(PID.TID 0000.0001) %MON dynstat_vvel_del2            =   1.0419095937571E-05
(PID.TID 0000.0001) %MON dynstat_wvel_max             =   2.1806938441207E-03
(PID.TID 0000.0001) %MON dynstat_wvel_min             =  -1.4960595186708E-03
(PID.TID 0000.0001) %MON dynstat_wvel_mean            =   2.2204538134944E-08
(PID.TID 0000.0001) %MON dynstat_wvel_sd              =   2.5892902231174E-05
(PID.TID 0000.0001) %MON dynstat_wvel_del2            =   3.1288098707100E-08
(PID.TID 0000.0001) %MON dynstat_theta_max            =   3.2519127520249E+01
(PID.TID 0000.0001) %MON dynstat_theta_min            =  -2.0417558447207E+00
(PID.TID 0000.0001) %MON dynstat_theta_mean           =   3.5904422699164E+00
(PID.TID 0000.0001) %MON dynstat_theta_sd             =   4.4360387585359E+00
(PID.TID 0000.0001) %MON dynstat_theta_del2           =   1.0068385985234E-04
(PID.TID 0000.0001) %MON dynstat_salt_max             =   4.0711539700440E+01
(PID.TID 0000.0001) %MON dynstat_salt_min             =   1.3281157053533E+01
(PID.TID 0000.0001) %MON dynstat_salt_mean            =   3.4725591141510E+01
(PID.TID 0000.0001) %MON dynstat_salt_sd              =   3.7702864060814E-01
(PID.TID 0000.0001) %MON dynstat_salt_del2            =   3.2743797917056E-05
(PID.TID 0000.0001) %MON dynstat_sst_max              =   3.2482677478822E+01
(PID.TID 0000.0001) %MON dynstat_sst_min              =  -1.8423657452099E+00
(PID.TID 0000.0001) %MON dynstat_sst_mean             =   1.8479332034473E+01
(PID.TID 0000.0001) %MON dynstat_sst_sd               =   1.0133523663792E+01
(PID.TID 0000.0001) %MON dynstat_sst_del2             =   8.3168048490226E-04
(PID.TID 0000.0001) %MON dynstat_sss_max              =   3.9211698399367E+01
(PID.TID 0000.0001) %MON dynstat_sss_min              =   1.3281157053533E+01
(PID.TID 0000.0001) %MON dynstat_sss_mean             =   3.4693282615574E+01
(PID.TID 0000.0001) %MON dynstat_sss_sd               =   1.1392740808273E+00
(PID.TID 0000.0001) %MON dynstat_sss_del2             =   9.2434170605087E-04
(PID.TID 0000.0001) %MON forcing_qnet_max             =   8.8940631438993E+02
(PID.TID 0000.0001) %MON forcing_qnet_min             =  -8.7360784912109E+02
(PID.TID 0000.0001) %MON forcing_qnet_mean            =   1.3401304096628E+01
(PID.TID 0000.0001) %MON forcing_qnet_sd              =   2.0247997443483E+02
(PID.TID 0000.0001) %MON forcing_qnet_del2            =   3.1644627947207E-01
(PID.TID 0000.0001) %MON forcing_qsw_max              =   0.0000000000000E+00
(PID.TID 0000.0001) %MON forcing_qsw_min              =  -1.0918010256112E+02
(PID.TID 0000.0001) %MON forcing_qsw_mean             =  -1.7133477868875E+01
(PID.TID 0000.0001) %MON forcing_qsw_sd               =   2.8965357816508E+01
(PID.TID 0000.0001) %MON forcing_qsw_del2             =   2.1873897725977E-02
(PID.TID 0000.0001) %MON forcing_empmr_max            =   9.9270290229470E-04
(PID.TID 0000.0001) %MON forcing_empmr_min            =  -5.8982204645872E-02
(PID.TID 0000.0001) %MON forcing_empmr_mean           =  -7.6967936478310E-06
(PID.TID 0000.0001) %MON forcing_empmr_sd             =   2.5950351191757E-04
(PID.TID 0000.0001) %MON forcing_empmr_del2           =   2.6224098557777E-06
(PID.TID 0000.0001) %MON forcing_fu_max               =   7.7076968550682E-01
(PID.TID 0000.0001) %MON forcing_fu_min               =  -1.3790379172928E+00
(PID.TID 0000.0001) %MON forcing_fu_mean              =   4.9677829026372E-03
(PID.TID 0000.0001) %MON forcing_fu_sd                =   1.0114488033503E-01
(PID.TID 0000.0001) %MON forcing_fu_del2              =   1.5939975767248E-04
(PID.TID 0000.0001) %MON forcing_fv_max               =   1.5129028558731E+00
(PID.TID 0000.0001) %MON forcing_fv_min               =  -1.0367004773800E+00
(PID.TID 0000.0001) %MON forcing_fv_mean              =  -7.6406781268867E-03
(PID.TID 0000.0001) %MON forcing_fv_sd                =   1.1152238313320E-01
(PID.TID 0000.0001) %MON forcing_fv_del2              =   1.5652844528240E-04
(PID.TID 0000.0001) %MON trAdv_CFL_u_max              =   1.7382831041186E-02
(PID.TID 0000.0001) %MON trAdv_CFL_v_max              =   2.3585552385606E-02
(PID.TID 0000.0001) %MON trAdv_CFL_w_max              =   6.5899983290023E-02
(PID.TID 0000.0001) %MON advcfl_uvel_max              =   1.7097406849680E-02
(PID.TID 0000.0001) %MON advcfl_vvel_max              =   2.4578896299807E-02
(PID.TID 0000.0001) %MON advcfl_wvel_max              =   6.9370320950366E-02
(PID.TID 0000.0001) %MON advcfl_W_hf_max              =   7.3403592796205E-02
(PID.TID 0000.0001) %MON pe_b_mean                    =   5.8579193768491E-04
(PID.TID 0000.0001) %MON ke_max                       =   1.0213561234882E+00
(PID.TID 0000.0001) %MON ke_mean                      =   4.2320233680466E-04
(PID.TID 0000.0001) %MON ke_vol                       =   1.3349972822681E+18
(PID.TID 0000.0001) %MON vort_r_min                   =  -2.8049240335600E-05
(PID.TID 0000.0001) %MON vort_r_max                   =   3.9594128848478E-05
(PID.TID 0000.0001) %MON vort_a_mean                  =  -1.9727864647440E-05
(PID.TID 0000.0001) %MON vort_a_sd                    =   7.4542994358382E-05
(PID.TID 0000.0001) %MON vort_p_mean                  =  -2.1760540675757E-05
(PID.TID 0000.0001) %MON vort_p_sd                    =   9.7247119462423E-05
(PID.TID 0000.0001) %MON surfExpan_theta_mean         =  -3.3442893453830E-07
(PID.TID 0000.0001) %MON surfExpan_salt_mean          =   2.1929327473905E-08
(PID.TID 0000.0001) // =======================================================
(PID.TID 0000.0001) // End MONITOR dynamic field statistics
(PID.TID 0000.0001) // =======================================================
(PID.TID 0000.0001) // =======================================================
(PID.TID 0000.0001) // Begin MONITOR SEAICE statistics
(PID.TID 0000.0001) // =======================================================
(PID.TID 0000.0001) %MON seaice_tsnumber              =                   168
(PID.TID 0000.0001) %MON seaice_time_sec              =   1.5120000000000E+05
(PID.TID 0000.0001) %MON seaice_uice_max              =   4.0000000000000E-01
(PID.TID 0000.0001) %MON seaice_uice_min              =  -4.0000000000000E-01
(PID.TID 0000.0001) %MON seaice_uice_mean             =  -8.3054598624025E-03
(PID.TID 0000.0001) %MON seaice_uice_sd               =   1.9802383574176E-01
(PID.TID 0000.0001) %MON seaice_uice_del2             =   2.2931571122150E-04
(PID.TID 0000.0001) %MON seaice_vice_max              =   4.0000000000000E-01
(PID.TID 0000.0001) %MON seaice_vice_min              =  -4.0000000000000E-01
(PID.TID 0000.0001) %MON seaice_vice_mean             =  -2.1960776359499E-02
(PID.TID 0000.0001) %MON seaice_vice_sd               =   2.1302038025672E-01
(PID.TID 0000.0001) %MON seaice_vice_del2             =   2.3932563818061E-04
(PID.TID 0000.0001) %MON seaice_area_max              =   1.0000000000000E+00
(PID.TID 0000.0001) %MON seaice_area_min              =   0.0000000000000E+00
(PID.TID 0000.0001) %MON seaice_area_mean             =   6.9143372776685E-02
(PID.TID 0000.0001) %MON seaice_area_sd               =   2.3547976676888E-01
(PID.TID 0000.0001) %MON seaice_area_del2             =   4.4963249533927E-04
(PID.TID 0000.0001) %MON seaice_heff_max              =   2.5209747824119E+01
(PID.TID 0000.0001) %MON seaice_heff_min              =   0.0000000000000E+00
(PID.TID 0000.0001) %MON seaice_heff_mean             =   2.1602190719044E-01
(PID.TID 0000.0001) %MON seaice_heff_sd               =   1.0703549276218E+00
(PID.TID 0000.0001) %MON seaice_heff_del2             =   3.9029762173567E-03
(PID.TID 0000.0001) %MON seaice_hsnow_max             =   8.3263604320528E+00
(PID.TID 0000.0001) %MON seaice_hsnow_min             =   0.0000000000000E+00
(PID.TID 0000.0001) %MON seaice_hsnow_mean            =   2.4497224650337E-02
(PID.TID 0000.0001) %MON seaice_hsnow_sd              =   1.5755569530616E-01
(PID.TID 0000.0001) %MON seaice_hsnow_del2            =   1.2519199976797E-03
(PID.TID 0000.0001) // =======================================================
(PID.TID 0000.0001) // End MONITOR SEAICE statistics
(PID.TID 0000.0001) // =======================================================
 Computing Diagnostic #     86  oceQnet      Counter:       4   Parms: SM      U1      
 Computing Diagnostic #     87  oceQsw       Counter:       4   Parms: SM      U1      
 Computing Diagnostic #     84  oceFWflx     Counter:       4   Parms: SM      U1      
 Computing Diagnostic #     85  oceSflux     Counter:       4   Parms: SM      U1      
 Computing Diagnostic #     80  oceTAUX      Counter:       4   Parms: UU      U1      
           Vector  Mate for  oceTAUX      Diagnostic #     81  oceTAUY  exists 
 Computing Diagnostic #     81  oceTAUY      Counter:       4   Parms: VV      U1      
           Vector  Mate for  oceTAUY      Diagnostic #     80  oceTAUX  exists 
 Computing Diagnostic #     26  THETA        Counter:       4   Parms: SMR     MR      
 Computing Diagnostic #     27  SALT         Counter:       4   Parms: SMR     MR      
 Computing Diagnostic #     30  UVEL         Counter:       4   Parms: UUR     MR      
           Vector  Mate for  UVEL         Diagnostic #     31  VVEL     exists 
 Computing Diagnostic #     31  VVEL         Counter:       4   Parms: VVR     MR      
           Vector  Mate for  VVEL         Diagnostic #     30  UVEL     exists 
 Computing Diagnostic #    214  SIarea       Counter:       4   Parms: SM      M1      
 Computing Diagnostic #    217  SIheff       Counter:       4   Parms: SM      M1      
 Computing Diagnostic #    219  SIhsnow      Counter:       4   Parms: SM      M1      
 Computing Diagnostic #     83  sIceLoad     Counter:       4   Parms: SM      U1      
 Computing Diagnostic #    223  SIuice       Counter:       4   Parms: UU      M1      
           Vector  Mate for  SIuice       Diagnostic #    224  SIvice   exists 
 Computing Diagnostic #    224  SIvice       Counter:       4   Parms: VV      M1      
           Vector  Mate for  SIvice       Diagnostic #    223  SIuice   exists 
 Computing Diagnostic #    225  SItaux       Counter:       4   Parms: UU      U1      
           Vector  Mate for  SItaux       Diagnostic #    226  SItauy   exists 
 Computing Diagnostic #    226  SItauy       Counter:       4   Parms: VV      U1      
           Vector  Mate for  SItauy       Diagnostic #    225  SItaux   exists 
 Computing Diagnostic #    285  SIareaN      Counter:       4   Parms: SM      MX      
 Computing Diagnostic #    284  SIheffN      Counter:       4   Parms: SM      MX      
 Computing Diagnostic #    286  SIhsnowN     Counter:       4   Parms: SM      MX      
 Compute Stats, Diag. #    214  SIarea    vol(   0 ): 3.580E+14  Parms: SM      M1      
 Compute Stats, Diag. #    217  SIheff    vol(   0 ): 3.580E+14  Parms: SM      M1      
 Compute Stats, Diag. #    219  SIhsnow   vol(   0 ): 3.580E+14  Parms: SM      M1      
 Compute Stats, Diag. #     83  sIceLoad  vol(   0 ): 3.580E+14  Parms: SM      U1      
 Compute Stats, Diag. #    223  SIuice    vol(   0 ): 3.513E+14  Parms: UU      M1      
 Compute Stats, Diag. #    224  SIvice    vol(   0 ): 3.508E+14  Parms: VV      M1      
 Compute Stats, Diag. #    225  SItaux    vol(   0 ): 3.513E+14  Parms: UU      U1      
 Compute Stats, Diag. #    226  SItauy    vol(   0 ): 3.508E+14  Parms: VV      U1      
 cg2d: Sum(rhs),rhsMax =   5.20896373872934E+01  2.92438306106135E-01
 Compute Stats, Diag. #    214  SIarea    vol(   0 ): 3.580E+14  Parms: SM      M1      
 Compute Stats, Diag. #    217  SIheff    vol(   0 ): 3.580E+14  Parms: SM      M1      
 Compute Stats, Diag. #    219  SIhsnow   vol(   0 ): 3.580E+14  Parms: SM      M1      
 Compute Stats, Diag. #     83  sIceLoad  vol(   0 ): 3.580E+14  Parms: SM      U1      
 Compute Stats, Diag. #    223  SIuice    vol(   0 ): 3.513E+14  Parms: UU      M1      
 Compute Stats, Diag. #    224  SIvice    vol(   0 ): 3.508E+14  Parms: VV      M1      
 Compute Stats, Diag. #    225  SItaux    vol(   0 ): 3.513E+14  Parms: UU      U1      
 Compute Stats, Diag. #    226  SItauy    vol(   0 ): 3.508E+14  Parms: VV      U1      
 cg2d: Sum(rhs),rhsMax =   5.18806551453201E+01  2.92499633445992E-01
 Compute Stats, Diag. #    214  SIarea    vol(   0 ): 3.580E+14  Parms: SM      M1      
 Compute Stats, Diag. #    217  SIheff    vol(   0 ): 3.580E+14  Parms: SM      M1      
 Compute Stats, Diag. #    219  SIhsnow   vol(   0 ): 3.580E+14  Parms: SM      M1      
 Compute Stats, Diag. #     83  sIceLoad  vol(   0 ): 3.580E+14  Parms: SM      U1      
 Compute Stats, Diag. #    223  SIuice    vol(   0 ): 3.513E+14  Parms: UU      M1      
 Compute Stats, Diag. #    224  SIvice    vol(   0 ): 3.508E+14  Parms: VV      M1      
 Compute Stats, Diag. #    225  SItaux    vol(   0 ): 3.513E+14  Parms: UU      U1      
 Compute Stats, Diag. #    226  SItauy    vol(   0 ): 3.508E+14  Parms: VV      U1      
 cg2d: Sum(rhs),rhsMax =   5.16650279074282E+01  2.92585863025201E-01
 Compute Stats, Diag. #    214  SIarea    vol(   0 ): 3.580E+14  Parms: SM      M1      
 Compute Stats, Diag. #    217  SIheff    vol(   0 ): 3.580E+14  Parms: SM      M1      
 Compute Stats, Diag. #    219  SIhsnow   vol(   0 ): 3.580E+14  Parms: SM      M1      
 Compute Stats, Diag. #     83  sIceLoad  vol(   0 ): 3.580E+14  Parms: SM      U1      
 Compute Stats, Diag. #    223  SIuice    vol(   0 ): 3.513E+14  Parms: UU      M1      
 Compute Stats, Diag. #    224  SIvice    vol(   0 ): 3.508E+14  Parms: VV      M1      
 Compute Stats, Diag. #    225  SItaux    vol(   0 ): 3.513E+14  Parms: UU      U1      
 Compute Stats, Diag. #    226  SItauy    vol(   0 ): 3.508E+14  Parms: VV      U1      
 cg2d: Sum(rhs),rhsMax =   5.14521996694063E+01  2.92694336031330E-01
 Computing Diagnostic #     86  oceQnet      Counter:       4   Parms: SM      U1      
 Computing Diagnostic #     87  oceQsw       Counter:       4   Parms: SM      U1      
 Computing Diagnostic #     84  oceFWflx     Counter:       4   Parms: SM      U1      
 Computing Diagnostic #     85  oceSflux     Counter:       4   Parms: SM      U1      
 Computing Diagnostic #     80  oceTAUX      Counter:       4   Parms: UU      U1      
           Vector  Mate for  oceTAUX      Diagnostic #     81  oceTAUY  exists 
 Computing Diagnostic #     81  oceTAUY      Counter:       4   Parms: VV      U1      
           Vector  Mate for  oceTAUY      Diagnostic #     80  oceTAUX  exists 
 Computing Diagnostic #     26  THETA        Counter:       4   Parms: SMR     MR      
 Computing Diagnostic #     27  SALT         Counter:       4   Parms: SMR     MR      
 Computing Diagnostic #     30  UVEL         Counter:       4   Parms: UUR     MR      
           Vector  Mate for  UVEL         Diagnostic #     31  VVEL     exists 
 Computing Diagnostic #     31  VVEL         Counter:       4   Parms: VVR     MR      
           Vector  Mate for  VVEL         Diagnostic #     30  UVEL     exists 
 Computing Diagnostic #    214  SIarea       Counter:       4   Parms: SM      M1      
 Computing Diagnostic #    217  SIheff       Counter:       4   Parms: SM      M1      
 Computing Diagnostic #    219  SIhsnow      Counter:       4   Parms: SM      M1      
 Computing Diagnostic #     83  sIceLoad     Counter:       4   Parms: SM      U1      
 Computing Diagnostic #    223  SIuice       Counter:       4   Parms: UU      M1      
           Vector  Mate for  SIuice       Diagnostic #    224  SIvice   exists 
 Computing Diagnostic #    224  SIvice       Counter:       4   Parms: VV      M1      
           Vector  Mate for  SIvice       Diagnostic #    223  SIuice   exists 
 Computing Diagnostic #    225  SItaux       Counter:       4   Parms: UU      U1      
           Vector  Mate for  SItaux       Diagnostic #    226  SItauy   exists 
 Computing Diagnostic #    226  SItauy       Counter:       4   Parms: VV      U1      
           Vector  Mate for  SItauy       Diagnostic #    225  SItaux   exists 
 Computing Diagnostic #    285  SIareaN      Counter:       4   Parms: SM      MX      
 Computing Diagnostic #    284  SIheffN      Counter:       4   Parms: SM      MX      
 Computing Diagnostic #    286  SIhsnowN     Counter:       4   Parms: SM      MX      
 Compute Stats, Diag. #    214  SIarea    vol(   0 ): 3.580E+14  Parms: SM      M1      
 Compute Stats, Diag. #    217  SIheff    vol(   0 ): 3.580E+14  Parms: SM      M1      
 Compute Stats, Diag. #    219  SIhsnow   vol(   0 ): 3.580E+14  Parms: SM      M1      
 Compute Stats, Diag. #     83  sIceLoad  vol(   0 ): 3.580E+14  Parms: SM      U1      
 Compute Stats, Diag. #    223  SIuice    vol(   0 ): 3.513E+14  Parms: UU      M1      
 Compute Stats, Diag. #    224  SIvice    vol(   0 ): 3.508E+14  Parms: VV      M1      
 Compute Stats, Diag. #    225  SItaux    vol(   0 ): 3.513E+14  Parms: UU      U1      
 Compute Stats, Diag. #    226  SItauy    vol(   0 ): 3.508E+14  Parms: VV      U1      
 cg2d: Sum(rhs),rhsMax =   5.12291248782435E+01  2.92823016871112E-01
 Compute Stats, Diag. #    214  SIarea    vol(   0 ): 3.580E+14  Parms: SM      M1      
 Compute Stats, Diag. #    217  SIheff    vol(   0 ): 3.580E+14  Parms: SM      M1      
 Compute Stats, Diag. #    219  SIhsnow   vol(   0 ): 3.580E+14  Parms: SM      M1      
 Compute Stats, Diag. #     83  sIceLoad  vol(   0 ): 3.580E+14  Parms: SM      U1      
 Compute Stats, Diag. #    223  SIuice    vol(   0 ): 3.513E+14  Parms: UU      M1      
 Compute Stats, Diag. #    224  SIvice    vol(   0 ): 3.508E+14  Parms: VV      M1      
 Compute Stats, Diag. #    225  SItaux    vol(   0 ): 3.513E+14  Parms: UU      U1      
 Compute Stats, Diag. #    226  SItauy    vol(   0 ): 3.508E+14  Parms: VV      U1      
 cg2d: Sum(rhs),rhsMax =   5.10127927988800E+01  2.92969454950596E-01
 Compute Stats, Diag. #    214  SIarea    vol(   0 ): 3.580E+14  Parms: SM      M1      
 Compute Stats, Diag. #    217  SIheff    vol(   0 ): 3.580E+14  Parms: SM      M1      
 Compute Stats, Diag. #    219  SIhsnow   vol(   0 ): 3.580E+14  Parms: SM      M1      
 Compute Stats, Diag. #     83  sIceLoad  vol(   0 ): 3.580E+14  Parms: SM      U1      
 Compute Stats, Diag. #    223  SIuice    vol(   0 ): 3.513E+14  Parms: UU      M1      
 Compute Stats, Diag. #    224  SIvice    vol(   0 ): 3.508E+14  Parms: VV      M1      
 Compute Stats, Diag. #    225  SItaux    vol(   0 ): 3.513E+14  Parms: UU      U1      
 Compute Stats, Diag. #    226  SItauy    vol(   0 ): 3.508E+14  Parms: VV      U1      
 cg2d: Sum(rhs),rhsMax =   5.07971262851970E+01  2.93130682068040E-01
 Compute Stats, Diag. #    214  SIarea    vol(   0 ): 3.580E+14  Parms: SM      M1      
 Compute Stats, Diag. #    217  SIheff    vol(   0 ): 3.580E+14  Parms: SM      M1      
 Compute Stats, Diag. #    219  SIhsnow   vol(   0 ): 3.580E+14  Parms: SM      M1      
 Compute Stats, Diag. #     83  sIceLoad  vol(   0 ): 3.580E+14  Parms: SM      U1      
 Compute Stats, Diag. #    223  SIuice    vol(   0 ): 3.513E+14  Parms: UU      M1      
 Compute Stats, Diag. #    224  SIvice    vol(   0 ): 3.508E+14  Parms: VV      M1      
 Compute Stats, Diag. #    225  SItaux    vol(   0 ): 3.513E+14  Parms: UU      U1      
 Compute Stats, Diag. #    226  SItauy    vol(   0 ): 3.508E+14  Parms: VV      U1      
 cg2d: Sum(rhs),rhsMax =   5.05891385842924E+01  2.93304390967384E-01
(PID.TID 0000.0001)      cg2d_init_res =   1.40021949797665E-01
(PID.TID 0000.0001)      cg2d_iters(min,last) =      -1      28
(PID.TID 0000.0001)      cg2d_last_res =   2.67525118809623E-05
(PID.TID 0000.0001) // =======================================================
(PID.TID 0000.0001) // Begin MONITOR dynamic field statistics
(PID.TID 0000.0001) // =======================================================
(PID.TID 0000.0001) %MON time_tsnumber                =                   176
(PID.TID 0000.0001) %MON time_secondsf                =   1.5840000000000E+05
(PID.TID 0000.0001) %MON dynstat_eta_max              =   1.0784406081741E+00
(PID.TID 0000.0001) %MON dynstat_eta_min              =  -2.6690756711685E+00
(PID.TID 0000.0001) %MON dynstat_eta_mean             =  -1.6002960244095E-03
(PID.TID 0000.0001) %MON dynstat_eta_sd               =   6.6548702222684E-01
(PID.TID 0000.0001) %MON dynstat_eta_del2             =   6.8887832551031E-05
(PID.TID 0000.0001) %MON dynstat_uvel_max             =   8.1346187491392E-01
(PID.TID 0000.0001) %MON dynstat_uvel_min             =  -9.9657788895609E-01
(PID.TID 0000.0001) %MON dynstat_uvel_mean            =   8.2078351440958E-04
(PID.TID 0000.0001) %MON dynstat_uvel_sd              =   2.0366885636214E-02
(PID.TID 0000.0001) %MON dynstat_uvel_del2            =   9.9822531546329E-06
(PID.TID 0000.0001) %MON dynstat_vvel_max             =   1.3722809514768E+00
(PID.TID 0000.0001) %MON dynstat_vvel_min             =  -8.4453566013628E-01
(PID.TID 0000.0001) %MON dynstat_vvel_mean            =   9.7312431923291E-04
(PID.TID 0000.0001) %MON dynstat_vvel_sd              =   2.1357403811969E-02
(PID.TID 0000.0001) %MON dynstat_vvel_del2            =   1.0193201923577E-05
(PID.TID 0000.0001) %MON dynstat_wvel_max             =   1.7078972513549E-03
(PID.TID 0000.0001) %MON dynstat_wvel_min             =  -1.2956857507994E-03
(PID.TID 0000.0001) %MON dynstat_wvel_mean            =   2.0438543043456E-08
(PID.TID 0000.0001) %MON dynstat_wvel_sd              =   2.5528951101165E-05
(PID.TID 0000.0001) %MON dynstat_wvel_del2            =   2.9452257747563E-08
(PID.TID 0000.0001) %MON dynstat_theta_max            =   3.2508391084788E+01
(PID.TID 0000.0001) %MON dynstat_theta_min            =  -2.0417196610477E+00
(PID.TID 0000.0001) %MON dynstat_theta_mean           =   3.5904389489297E+00
(PID.TID 0000.0001) %MON dynstat_theta_sd             =   4.4360281626084E+00
(PID.TID 0000.0001) %MON dynstat_theta_del2           =   1.0039645303591E-04
(PID.TID 0000.0001) %MON dynstat_salt_max             =   4.0711541003028E+01
(PID.TID 0000.0001) %MON dynstat_salt_min             =   1.2906833287724E+01
(PID.TID 0000.0001) %MON dynstat_salt_mean            =   3.4725590109893E+01
(PID.TID 0000.0001) %MON dynstat_salt_sd              =   3.7702615829586E-01
(PID.TID 0000.0001) %MON dynstat_salt_del2            =   3.2515847593730E-05
(PID.TID 0000.0001) %MON dynstat_sst_max              =   3.2460422895148E+01
(PID.TID 0000.0001) %MON dynstat_sst_min              =  -1.8397812380357E+00
(PID.TID 0000.0001) %MON dynstat_sst_mean             =   1.8480890106945E+01
(PID.TID 0000.0001) %MON dynstat_sst_sd               =   1.0135360828415E+01
(PID.TID 0000.0001) %MON dynstat_sst_del2             =   8.3006662786808E-04
(PID.TID 0000.0001) %MON dynstat_sss_max              =   3.9203236925015E+01
(PID.TID 0000.0001) %MON dynstat_sss_min              =   1.2906833287724E+01
(PID.TID 0000.0001) %MON dynstat_sss_mean             =   3.4693699379782E+01
(PID.TID 0000.0001) %MON dynstat_sss_sd               =   1.1400351336109E+00
(PID.TID 0000.0001) %MON dynstat_sss_del2             =   9.1336389353704E-04
(PID.TID 0000.0001) %MON forcing_qnet_max             =   1.4179091642057E+03
(PID.TID 0000.0001) %MON forcing_qnet_min             =  -8.7856707598499E+02
(PID.TID 0000.0001) %MON forcing_qnet_mean            =   1.9284461388752E+00
(PID.TID 0000.0001) %MON forcing_qnet_sd              =   1.9419531671804E+02
(PID.TID 0000.0001) %MON forcing_qnet_del2            =   3.1544462200557E-01
(PID.TID 0000.0001) %MON forcing_qsw_max              =   0.0000000000000E+00
(PID.TID 0000.0001) %MON forcing_qsw_min              =  -1.0966950446438E+02
(PID.TID 0000.0001) %MON forcing_qsw_mean             =  -1.8848780825299E+01
(PID.TID 0000.0001) %MON forcing_qsw_sd               =   2.8498100804215E+01
(PID.TID 0000.0001) %MON forcing_qsw_del2             =   2.1787216929859E-02
(PID.TID 0000.0001) %MON forcing_empmr_max            =   9.6815323922783E-04
(PID.TID 0000.0001) %MON forcing_empmr_min            =  -7.6134882867336E-02
(PID.TID 0000.0001) %MON forcing_empmr_mean           =  -7.5223504337634E-06
(PID.TID 0000.0001) %MON forcing_empmr_sd             =   3.1181039770172E-04
(PID.TID 0000.0001) %MON forcing_empmr_del2           =   3.1729169663249E-06
(PID.TID 0000.0001) %MON forcing_fu_max               =   6.9683098793030E-01
(PID.TID 0000.0001) %MON forcing_fu_min               =  -1.4045079592719E+00
(PID.TID 0000.0001) %MON forcing_fu_mean              =   4.7720244325465E-03
(PID.TID 0000.0001) %MON forcing_fu_sd                =   1.0032843782770E-01
(PID.TID 0000.0001) %MON forcing_fu_del2              =   1.5763945417058E-04
(PID.TID 0000.0001) %MON forcing_fv_max               =   1.6118472814560E+00
(PID.TID 0000.0001) %MON forcing_fv_min               =  -1.0217169927441E+00
(PID.TID 0000.0001) %MON forcing_fv_mean              =  -7.1434868550511E-03
(PID.TID 0000.0001) %MON forcing_fv_sd                =   1.1136387363310E-01
(PID.TID 0000.0001) %MON forcing_fv_del2              =   1.5519574797105E-04
(PID.TID 0000.0001) %MON trAdv_CFL_u_max              =   1.6350877689331E-02
(PID.TID 0000.0001) %MON trAdv_CFL_v_max              =   2.3409566705509E-02
(PID.TID 0000.0001) %MON trAdv_CFL_w_max              =   4.9577324873141E-02
(PID.TID 0000.0001) %MON advcfl_uvel_max              =   1.6488296921499E-02
(PID.TID 0000.0001) %MON advcfl_vvel_max              =   2.4359227663658E-02
(PID.TID 0000.0001) %MON advcfl_wvel_max              =   5.2367354311455E-02
(PID.TID 0000.0001) %MON advcfl_W_hf_max              =   5.5540722198501E-02
(PID.TID 0000.0001) %MON pe_b_mean                    =   5.8255932436589E-04
(PID.TID 0000.0001) %MON ke_max                       =   9.9495989713111E-01
(PID.TID 0000.0001) %MON ke_mean                      =   4.2074794678133E-04
(PID.TID 0000.0001) %MON ke_vol                       =   1.3349973016556E+18
(PID.TID 0000.0001) %MON vort_r_min                   =  -2.6740992631059E-05
(PID.TID 0000.0001) %MON vort_r_max                   =   3.9143134350290E-05
(PID.TID 0000.0001) %MON vort_a_mean                  =  -1.9727864647440E-05
(PID.TID 0000.0001) %MON vort_a_sd                    =   7.4542989511459E-05
(PID.TID 0000.0001) %MON vort_p_mean                  =  -2.1760540352455E-05
(PID.TID 0000.0001) %MON vort_p_sd                    =   9.7247090144680E-05
(PID.TID 0000.0001) %MON surfExpan_theta_mean         =  -3.4660145429275E-07
(PID.TID 0000.0001) %MON surfExpan_salt_mean          =   1.8178907829591E-08
(PID.TID 0000.0001) // =======================================================
(PID.TID 0000.0001) // End MONITOR dynamic field statistics
(PID.TID 0000.0001) // =======================================================
(PID.TID 0000.0001) // =======================================================
(PID.TID 0000.0001) // Begin MONITOR SEAICE statistics
(PID.TID 0000.0001) // =======================================================
(PID.TID 0000.0001) %MON seaice_tsnumber              =                   176
(PID.TID 0000.0001) %MON seaice_time_sec              =   1.5840000000000E+05
(PID.TID 0000.0001) %MON seaice_uice_max              =   4.0000000000000E-01
(PID.TID 0000.0001) %MON seaice_uice_min              =  -4.0000000000000E-01
(PID.TID 0000.0001) %MON seaice_uice_mean             =  -8.3054598624025E-03
(PID.TID 0000.0001) %MON seaice_uice_sd               =   1.9802383574176E-01
(PID.TID 0000.0001) %MON seaice_uice_del2             =   2.2931571122150E-04
(PID.TID 0000.0001) %MON seaice_vice_max              =   4.0000000000000E-01
(PID.TID 0000.0001) %MON seaice_vice_min              =  -4.0000000000000E-01
(PID.TID 0000.0001) %MON seaice_vice_mean             =  -2.1960776359499E-02
(PID.TID 0000.0001) %MON seaice_vice_sd               =   2.1302038025672E-01
(PID.TID 0000.0001) %MON seaice_vice_del2             =   2.3932563818061E-04
(PID.TID 0000.0001) %MON seaice_area_max              =   1.0000000000000E+00
(PID.TID 0000.0001) %MON seaice_area_min              =   0.0000000000000E+00
(PID.TID 0000.0001) %MON seaice_area_mean             =   6.9066910625093E-02
(PID.TID 0000.0001) %MON seaice_area_sd               =   2.3536925084731E-01
(PID.TID 0000.0001) %MON seaice_area_del2             =   4.4812449272139E-04
(PID.TID 0000.0001) %MON seaice_heff_max              =   2.5206209491240E+01
(PID.TID 0000.0001) %MON seaice_heff_min              =   0.0000000000000E+00
(PID.TID 0000.0001) %MON seaice_heff_mean             =   2.1595690653708E-01
(PID.TID 0000.0001) %MON seaice_heff_sd               =   1.0702825946455E+00
(PID.TID 0000.0001) %MON seaice_heff_del2             =   3.9020542866747E-03
(PID.TID 0000.0001) %MON seaice_hsnow_max             =   8.3251951991115E+00
(PID.TID 0000.0001) %MON seaice_hsnow_min             =   0.0000000000000E+00
(PID.TID 0000.0001) %MON seaice_hsnow_mean            =   2.4486813880630E-02
(PID.TID 0000.0001) %MON seaice_hsnow_sd              =   1.5752084624275E-01
(PID.TID 0000.0001) %MON seaice_hsnow_del2            =   1.2517203738694E-03
(PID.TID 0000.0001) // =======================================================
(PID.TID 0000.0001) // End MONITOR SEAICE statistics
(PID.TID 0000.0001) // =======================================================
 Computing Diagnostic #     86  oceQnet      Counter:       4   Parms: SM      U1      
 Computing Diagnostic #     87  oceQsw       Counter:       4   Parms: SM      U1      
 Computing Diagnostic #     84  oceFWflx     Counter:       4   Parms: SM      U1      
 Computing Diagnostic #     85  oceSflux     Counter:       4   Parms: SM      U1      
 Computing Diagnostic #     80  oceTAUX      Counter:       4   Parms: UU      U1      
           Vector  Mate for  oceTAUX      Diagnostic #     81  oceTAUY  exists 
 Computing Diagnostic #     81  oceTAUY      Counter:       4   Parms: VV      U1      
           Vector  Mate for  oceTAUY      Diagnostic #     80  oceTAUX  exists 
 Computing Diagnostic #     26  THETA        Counter:       4   Parms: SMR     MR      
 Computing Diagnostic #     27  SALT         Counter:       4   Parms: SMR     MR      
 Computing Diagnostic #     30  UVEL         Counter:       4   Parms: UUR     MR      
           Vector  Mate for  UVEL         Diagnostic #     31  VVEL     exists 
 Computing Diagnostic #     31  VVEL         Counter:       4   Parms: VVR     MR      
           Vector  Mate for  VVEL         Diagnostic #     30  UVEL     exists 
 Computing Diagnostic #    214  SIarea       Counter:       4   Parms: SM      M1      
 Computing Diagnostic #    217  SIheff       Counter:       4   Parms: SM      M1      
 Computing Diagnostic #    219  SIhsnow      Counter:       4   Parms: SM      M1      
 Computing Diagnostic #     83  sIceLoad     Counter:       4   Parms: SM      U1      
 Computing Diagnostic #    223  SIuice       Counter:       4   Parms: UU      M1      
           Vector  Mate for  SIuice       Diagnostic #    224  SIvice   exists 
 Computing Diagnostic #    224  SIvice       Counter:       4   Parms: VV      M1      
           Vector  Mate for  SIvice       Diagnostic #    223  SIuice   exists 
 Computing Diagnostic #    225  SItaux       Counter:       4   Parms: UU      U1      
           Vector  Mate for  SItaux       Diagnostic #    226  SItauy   exists 
 Computing Diagnostic #    226  SItauy       Counter:       4   Parms: VV      U1      
           Vector  Mate for  SItauy       Diagnostic #    225  SItaux   exists 
 Computing Diagnostic #    285  SIareaN      Counter:       4   Parms: SM      MX      
 Computing Diagnostic #    284  SIheffN      Counter:       4   Parms: SM      MX      
 Computing Diagnostic #    286  SIhsnowN     Counter:       4   Parms: SM      MX      
 Compute Stats, Diag. #    214  SIarea    vol(   0 ): 3.580E+14  Parms: SM      M1      
 Compute Stats, Diag. #    217  SIheff    vol(   0 ): 3.580E+14  Parms: SM      M1      
 Compute Stats, Diag. #    219  SIhsnow   vol(   0 ): 3.580E+14  Parms: SM      M1      
 Compute Stats, Diag. #     83  sIceLoad  vol(   0 ): 3.580E+14  Parms: SM      U1      
 Compute Stats, Diag. #    223  SIuice    vol(   0 ): 3.513E+14  Parms: UU      M1      
 Compute Stats, Diag. #    224  SIvice    vol(   0 ): 3.508E+14  Parms: VV      M1      
 Compute Stats, Diag. #    225  SItaux    vol(   0 ): 3.513E+14  Parms: UU      U1      
 Compute Stats, Diag. #    226  SItauy    vol(   0 ): 3.508E+14  Parms: VV      U1      
 cg2d: Sum(rhs),rhsMax =   5.03839535199721E+01  2.93488070589567E-01
 Compute Stats, Diag. #    214  SIarea    vol(   0 ): 3.580E+14  Parms: SM      M1      
 Compute Stats, Diag. #    217  SIheff    vol(   0 ): 3.580E+14  Parms: SM      M1      
 Compute Stats, Diag. #    219  SIhsnow   vol(   0 ): 3.580E+14  Parms: SM      M1      
 Compute Stats, Diag. #     83  sIceLoad  vol(   0 ): 3.580E+14  Parms: SM      U1      
 Compute Stats, Diag. #    223  SIuice    vol(   0 ): 3.513E+14  Parms: UU      M1      
 Compute Stats, Diag. #    224  SIvice    vol(   0 ): 3.508E+14  Parms: VV      M1      
 Compute Stats, Diag. #    225  SItaux    vol(   0 ): 3.513E+14  Parms: UU      U1      
 Compute Stats, Diag. #    226  SItauy    vol(   0 ): 3.508E+14  Parms: VV      U1      
 cg2d: Sum(rhs),rhsMax =   5.01791293203753E+01  2.93678786906682E-01
 Compute Stats, Diag. #    214  SIarea    vol(   0 ): 3.580E+14  Parms: SM      M1      
 Compute Stats, Diag. #    217  SIheff    vol(   0 ): 3.580E+14  Parms: SM      M1      
 Compute Stats, Diag. #    219  SIhsnow   vol(   0 ): 3.580E+14  Parms: SM      M1      
 Compute Stats, Diag. #     83  sIceLoad  vol(   0 ): 3.580E+14  Parms: SM      U1      
 Compute Stats, Diag. #    223  SIuice    vol(   0 ): 3.513E+14  Parms: UU      M1      
 Compute Stats, Diag. #    224  SIvice    vol(   0 ): 3.508E+14  Parms: VV      M1      
 Compute Stats, Diag. #    225  SItaux    vol(   0 ): 3.513E+14  Parms: UU      U1      
 Compute Stats, Diag. #    226  SItauy    vol(   0 ): 3.508E+14  Parms: VV      U1      
 cg2d: Sum(rhs),rhsMax =   4.99681843795338E+01  2.93873997331792E-01
 Compute Stats, Diag. #    214  SIarea    vol(   0 ): 3.580E+14  Parms: SM      M1      
 Compute Stats, Diag. #    217  SIheff    vol(   0 ): 3.580E+14  Parms: SM      M1      
 Compute Stats, Diag. #    219  SIhsnow   vol(   0 ): 3.580E+14  Parms: SM      M1      
 Compute Stats, Diag. #     83  sIceLoad  vol(   0 ): 3.580E+14  Parms: SM      U1      
 Compute Stats, Diag. #    223  SIuice    vol(   0 ): 3.513E+14  Parms: UU      M1      
 Compute Stats, Diag. #    224  SIvice    vol(   0 ): 3.508E+14  Parms: VV      M1      
 Compute Stats, Diag. #    225  SItaux    vol(   0 ): 3.513E+14  Parms: UU      U1      
 Compute Stats, Diag. #    226  SItauy    vol(   0 ): 3.508E+14  Parms: VV      U1      
 cg2d: Sum(rhs),rhsMax =   4.97543910495344E+01  2.94071477401866E-01
 Computing Diagnostic #     86  oceQnet      Counter:       4   Parms: SM      U1      
 Computing Diagnostic #     87  oceQsw       Counter:       4   Parms: SM      U1      
 Computing Diagnostic #     84  oceFWflx     Counter:       4   Parms: SM      U1      
 Computing Diagnostic #     85  oceSflux     Counter:       4   Parms: SM      U1      
 Computing Diagnostic #     80  oceTAUX      Counter:       4   Parms: UU      U1      
           Vector  Mate for  oceTAUX      Diagnostic #     81  oceTAUY  exists 
 Computing Diagnostic #     81  oceTAUY      Counter:       4   Parms: VV      U1      
           Vector  Mate for  oceTAUY      Diagnostic #     80  oceTAUX  exists 
 Computing Diagnostic #     26  THETA        Counter:       4   Parms: SMR     MR      
 Computing Diagnostic #     27  SALT         Counter:       4   Parms: SMR     MR      
 Computing Diagnostic #     30  UVEL         Counter:       4   Parms: UUR     MR      
           Vector  Mate for  UVEL         Diagnostic #     31  VVEL     exists 
 Computing Diagnostic #     31  VVEL         Counter:       4   Parms: VVR     MR      
           Vector  Mate for  VVEL         Diagnostic #     30  UVEL     exists 
 Computing Diagnostic #    214  SIarea       Counter:       4   Parms: SM      M1      
 Computing Diagnostic #    217  SIheff       Counter:       4   Parms: SM      M1      
 Computing Diagnostic #    219  SIhsnow      Counter:       4   Parms: SM      M1      
 Computing Diagnostic #     83  sIceLoad     Counter:       4   Parms: SM      U1      
 Computing Diagnostic #    223  SIuice       Counter:       4   Parms: UU      M1      
           Vector  Mate for  SIuice       Diagnostic #    224  SIvice   exists 
 Computing Diagnostic #    224  SIvice       Counter:       4   Parms: VV      M1      
           Vector  Mate for  SIvice       Diagnostic #    223  SIuice   exists 
 Computing Diagnostic #    225  SItaux       Counter:       4   Parms: UU      U1      
           Vector  Mate for  SItaux       Diagnostic #    226  SItauy   exists 
 Computing Diagnostic #    226  SItauy       Counter:       4   Parms: VV      U1      
           Vector  Mate for  SItauy       Diagnostic #    225  SItaux   exists 
 Computing Diagnostic #    285  SIareaN      Counter:       4   Parms: SM      MX      
 Computing Diagnostic #    284  SIheffN      Counter:       4   Parms: SM      MX      
 Computing Diagnostic #    286  SIhsnowN     Counter:       4   Parms: SM      MX      
 Compute Stats, Diag. #    214  SIarea    vol(   0 ): 3.580E+14  Parms: SM      M1      
 Compute Stats, Diag. #    217  SIheff    vol(   0 ): 3.580E+14  Parms: SM      M1      
 Compute Stats, Diag. #    219  SIhsnow   vol(   0 ): 3.580E+14  Parms: SM      M1      
 Compute Stats, Diag. #     83  sIceLoad  vol(   0 ): 3.580E+14  Parms: SM      U1      
 Compute Stats, Diag. #    223  SIuice    vol(   0 ): 3.513E+14  Parms: UU      M1      
 Compute Stats, Diag. #    224  SIvice    vol(   0 ): 3.508E+14  Parms: VV      M1      
 Compute Stats, Diag. #    225  SItaux    vol(   0 ): 3.513E+14  Parms: UU      U1      
 Compute Stats, Diag. #    226  SItauy    vol(   0 ): 3.508E+14  Parms: VV      U1      
 cg2d: Sum(rhs),rhsMax =   4.95492749662033E+01  2.94269270805132E-01
 Compute Stats, Diag. #    214  SIarea    vol(   0 ): 3.580E+14  Parms: SM      M1      
 Compute Stats, Diag. #    217  SIheff    vol(   0 ): 3.580E+14  Parms: SM      M1      
 Compute Stats, Diag. #    219  SIhsnow   vol(   0 ): 3.580E+14  Parms: SM      M1      
 Compute Stats, Diag. #     83  sIceLoad  vol(   0 ): 3.580E+14  Parms: SM      U1      
 Compute Stats, Diag. #    223  SIuice    vol(   0 ): 3.513E+14  Parms: UU      M1      
 Compute Stats, Diag. #    224  SIvice    vol(   0 ): 3.508E+14  Parms: VV      M1      
 Compute Stats, Diag. #    225  SItaux    vol(   0 ): 3.513E+14  Parms: UU      U1      
 Compute Stats, Diag. #    226  SItauy    vol(   0 ): 3.508E+14  Parms: VV      U1      
 cg2d: Sum(rhs),rhsMax =   4.93454724595748E+01  2.94463346371399E-01
 Compute Stats, Diag. #    214  SIarea    vol(   0 ): 3.580E+14  Parms: SM      M1      
 Compute Stats, Diag. #    217  SIheff    vol(   0 ): 3.580E+14  Parms: SM      M1      
 Compute Stats, Diag. #    219  SIhsnow   vol(   0 ): 3.580E+14  Parms: SM      M1      
 Compute Stats, Diag. #     83  sIceLoad  vol(   0 ): 3.580E+14  Parms: SM      U1      
 Compute Stats, Diag. #    223  SIuice    vol(   0 ): 3.513E+14  Parms: UU      M1      
 Compute Stats, Diag. #    224  SIvice    vol(   0 ): 3.508E+14  Parms: VV      M1      
 Compute Stats, Diag. #    225  SItaux    vol(   0 ): 3.513E+14  Parms: UU      U1      
 Compute Stats, Diag. #    226  SItauy    vol(   0 ): 3.508E+14  Parms: VV      U1      
 cg2d: Sum(rhs),rhsMax =   4.91399882102742E+01  2.94652893807790E-01
 Compute Stats, Diag. #    214  SIarea    vol(   0 ): 3.580E+14  Parms: SM      M1      
 Compute Stats, Diag. #    217  SIheff    vol(   0 ): 3.580E+14  Parms: SM      M1      
 Compute Stats, Diag. #    219  SIhsnow   vol(   0 ): 3.580E+14  Parms: SM      M1      
 Compute Stats, Diag. #     83  sIceLoad  vol(   0 ): 3.580E+14  Parms: SM      U1      
 Compute Stats, Diag. #    223  SIuice    vol(   0 ): 3.513E+14  Parms: UU      M1      
 Compute Stats, Diag. #    224  SIvice    vol(   0 ): 3.508E+14  Parms: VV      M1      
 Compute Stats, Diag. #    225  SItaux    vol(   0 ): 3.513E+14  Parms: UU      U1      
 Compute Stats, Diag. #    226  SItauy    vol(   0 ): 3.508E+14  Parms: VV      U1      
 cg2d: Sum(rhs),rhsMax =   4.89256734206274E+01  2.94834437609398E-01
(PID.TID 0000.0001)      cg2d_init_res =   1.53563635786810E-01
(PID.TID 0000.0001)      cg2d_iters(min,last) =      -1      27
(PID.TID 0000.0001)      cg2d_last_res =   2.11810559984769E-05
(PID.TID 0000.0001) // =======================================================
(PID.TID 0000.0001) // Begin MONITOR dynamic field statistics
(PID.TID 0000.0001) // =======================================================
(PID.TID 0000.0001) %MON time_tsnumber                =                   184
(PID.TID 0000.0001) %MON time_secondsf                =   1.6560000000000E+05
(PID.TID 0000.0001) %MON dynstat_eta_max              =   1.0801164047572E+00
(PID.TID 0000.0001) %MON dynstat_eta_min              =  -2.6166259271979E+00
(PID.TID 0000.0001) %MON dynstat_eta_mean             =  -1.5476753085276E-03
(PID.TID 0000.0001) %MON dynstat_eta_sd               =   6.6370224906420E-01
(PID.TID 0000.0001) %MON dynstat_eta_del2             =   6.8149672531879E-05
(PID.TID 0000.0001) %MON dynstat_uvel_max             =   8.2275822377783E-01
(PID.TID 0000.0001) %MON dynstat_uvel_min             =  -9.7433396080434E-01
(PID.TID 0000.0001) %MON dynstat_uvel_mean            =   8.3813862667716E-04
(PID.TID 0000.0001) %MON dynstat_uvel_sd              =   2.0361330207491E-02
(PID.TID 0000.0001) %MON dynstat_uvel_del2            =   9.7473481998059E-06
(PID.TID 0000.0001) %MON dynstat_vvel_max             =   1.3555605455259E+00
(PID.TID 0000.0001) %MON dynstat_vvel_min             =  -8.4400042213853E-01
(PID.TID 0000.0001) %MON dynstat_vvel_mean            =   9.8576277472580E-04
(PID.TID 0000.0001) %MON dynstat_vvel_sd              =   2.1265519344934E-02
(PID.TID 0000.0001) %MON dynstat_vvel_del2            =   9.9941874979454E-06
(PID.TID 0000.0001) %MON dynstat_wvel_max             =   1.5546602943108E-03
(PID.TID 0000.0001) %MON dynstat_wvel_min             =  -1.2662503507578E-03
(PID.TID 0000.0001) %MON dynstat_wvel_mean            =   1.6200678128021E-08
(PID.TID 0000.0001) %MON dynstat_wvel_sd              =   2.5122038490166E-05
(PID.TID 0000.0001) %MON dynstat_wvel_del2            =   2.7868144371892E-08
(PID.TID 0000.0001) %MON dynstat_theta_max            =   3.2492328819722E+01
(PID.TID 0000.0001) %MON dynstat_theta_min            =  -2.0416799149811E+00
(PID.TID 0000.0001) %MON dynstat_theta_mean           =   3.5904408703721E+00
(PID.TID 0000.0001) %MON dynstat_theta_sd             =   4.4360444831491E+00
(PID.TID 0000.0001) %MON dynstat_theta_del2           =   1.0011727605446E-04
(PID.TID 0000.0001) %MON dynstat_salt_max             =   4.0711542366637E+01
(PID.TID 0000.0001) %MON dynstat_salt_min             =   1.2401528844003E+01
(PID.TID 0000.0001) %MON dynstat_salt_mean            =   3.4725589138753E+01
(PID.TID 0000.0001) %MON dynstat_salt_sd              =   3.7702462520241E-01
(PID.TID 0000.0001) %MON dynstat_salt_del2            =   3.2369111769474E-05
(PID.TID 0000.0001) %MON dynstat_sst_max              =   3.2442913229275E+01
(PID.TID 0000.0001) %MON dynstat_sst_min              =  -1.8373193634481E+00
(PID.TID 0000.0001) %MON dynstat_sst_mean             =   1.8482914330825E+01
(PID.TID 0000.0001) %MON dynstat_sst_sd               =   1.0137824965392E+01
(PID.TID 0000.0001) %MON dynstat_sst_del2             =   8.2869458812522E-04
(PID.TID 0000.0001) %MON dynstat_sss_max              =   3.9195499470823E+01
(PID.TID 0000.0001) %MON dynstat_sss_min              =   1.2401528844003E+01
(PID.TID 0000.0001) %MON dynstat_sss_mean             =   3.4694034670687E+01
(PID.TID 0000.0001) %MON dynstat_sss_sd               =   1.1407838974699E+00
(PID.TID 0000.0001) %MON dynstat_sss_del2             =   9.0707146053598E-04
(PID.TID 0000.0001) %MON forcing_qnet_max             =   1.1236765136719E+03
(PID.TID 0000.0001) %MON forcing_qnet_min             =  -1.0143232421875E+03
(PID.TID 0000.0001) %MON forcing_qnet_mean            =  -8.3907094342425E+00
(PID.TID 0000.0001) %MON forcing_qnet_sd              =   1.8938548932446E+02
(PID.TID 0000.0001) %MON forcing_qnet_del2            =   3.2232588882354E-01
(PID.TID 0000.0001) %MON forcing_qsw_max              =   0.0000000000000E+00
(PID.TID 0000.0001) %MON forcing_qsw_min              =  -1.0940159292463E+02
(PID.TID 0000.0001) %MON forcing_qsw_mean             =  -2.0291647625662E+01
(PID.TID 0000.0001) %MON forcing_qsw_sd               =   2.9648793424471E+01
(PID.TID 0000.0001) %MON forcing_qsw_del2             =   2.0451883777858E-02
(PID.TID 0000.0001) %MON forcing_empmr_max            =   9.9799269810319E-04
(PID.TID 0000.0001) %MON forcing_empmr_min            =  -8.4651120007038E-02
(PID.TID 0000.0001) %MON forcing_empmr_mean           =  -7.7511840549048E-06
(PID.TID 0000.0001) %MON forcing_empmr_sd             =   3.4646158806016E-04
(PID.TID 0000.0001) %MON forcing_empmr_del2           =   3.5476254190377E-06
(PID.TID 0000.0001) %MON forcing_fu_max               =   6.6802439093590E-01
(PID.TID 0000.0001) %MON forcing_fu_min               =  -1.3857054041148E+00
(PID.TID 0000.0001) %MON forcing_fu_mean              =   4.3416506902974E-03
(PID.TID 0000.0001) %MON forcing_fu_sd                =   9.9440284976142E-02
(PID.TID 0000.0001) %MON forcing_fu_del2              =   1.5445338965512E-04
(PID.TID 0000.0001) %MON forcing_fv_max               =   1.5969066619873E+00
(PID.TID 0000.0001) %MON forcing_fv_min               =  -1.0031425880457E+00
(PID.TID 0000.0001) %MON forcing_fv_mean              =  -6.8838406302368E-03
(PID.TID 0000.0001) %MON forcing_fv_sd                =   1.1116551104999E-01
(PID.TID 0000.0001) %MON forcing_fv_del2              =   1.5316970100299E-04
(PID.TID 0000.0001) %MON trAdv_CFL_u_max              =   1.5985864793925E-02
(PID.TID 0000.0001) %MON trAdv_CFL_v_max              =   2.3162928355065E-02
(PID.TID 0000.0001) %MON trAdv_CFL_w_max              =   3.4680965046734E-02
(PID.TID 0000.0001) %MON advcfl_uvel_max              =   1.6120273010743E-02
(PID.TID 0000.0001) %MON advcfl_vvel_max              =   2.4062425339945E-02
(PID.TID 0000.0001) %MON advcfl_wvel_max              =   3.6850133563254E-02
(PID.TID 0000.0001) %MON advcfl_W_hf_max              =   3.9235751024257E-02
(PID.TID 0000.0001) %MON pe_b_mean                    =   5.7943856863323E-04
(PID.TID 0000.0001) %MON ke_max                       =   9.6412068617806E-01
(PID.TID 0000.0001) %MON ke_mean                      =   4.1877596671716E-04
(PID.TID 0000.0001) %MON ke_vol                       =   1.3349973204229E+18
(PID.TID 0000.0001) %MON vort_r_min                   =  -2.5778702202556E-05
(PID.TID 0000.0001) %MON vort_r_max                   =   3.8578764228135E-05
(PID.TID 0000.0001) %MON vort_a_mean                  =  -1.9727864647440E-05
(PID.TID 0000.0001) %MON vort_a_sd                    =   7.4542989959002E-05
(PID.TID 0000.0001) %MON vort_p_mean                  =  -2.1760540016666E-05
(PID.TID 0000.0001) %MON vort_p_sd                    =   9.7247040471862E-05
(PID.TID 0000.0001) %MON surfExpan_theta_mean         =  -4.6843680976151E-07
(PID.TID 0000.0001) %MON surfExpan_salt_mean          =   1.0236556735723E-08
(PID.TID 0000.0001) // =======================================================
(PID.TID 0000.0001) // End MONITOR dynamic field statistics
(PID.TID 0000.0001) // =======================================================
(PID.TID 0000.0001) // =======================================================
(PID.TID 0000.0001) // Begin MONITOR SEAICE statistics
(PID.TID 0000.0001) // =======================================================
(PID.TID 0000.0001) %MON seaice_tsnumber              =                   184
(PID.TID 0000.0001) %MON seaice_time_sec              =   1.6560000000000E+05
(PID.TID 0000.0001) %MON seaice_uice_max              =   4.0000000000000E-01
(PID.TID 0000.0001) %MON seaice_uice_min              =  -4.0000000000000E-01
(PID.TID 0000.0001) %MON seaice_uice_mean             =  -8.3054598624025E-03
(PID.TID 0000.0001) %MON seaice_uice_sd               =   1.9802383574176E-01
(PID.TID 0000.0001) %MON seaice_uice_del2             =   2.2931571122150E-04
(PID.TID 0000.0001) %MON seaice_vice_max              =   4.0000000000000E-01
(PID.TID 0000.0001) %MON seaice_vice_min              =  -4.0000000000000E-01
(PID.TID 0000.0001) %MON seaice_vice_mean             =  -2.1960776359499E-02
(PID.TID 0000.0001) %MON seaice_vice_sd               =   2.1302038025672E-01
(PID.TID 0000.0001) %MON seaice_vice_del2             =   2.3932563818061E-04
(PID.TID 0000.0001) %MON seaice_area_max              =   1.0000000000000E+00
(PID.TID 0000.0001) %MON seaice_area_min              =   0.0000000000000E+00
(PID.TID 0000.0001) %MON seaice_area_mean             =   6.8995602169386E-02
(PID.TID 0000.0001) %MON seaice_area_sd               =   2.3526271509277E-01
(PID.TID 0000.0001) %MON seaice_area_del2             =   4.4665944526808E-04
(PID.TID 0000.0001) %MON seaice_heff_max              =   2.5202652995009E+01
(PID.TID 0000.0001) %MON seaice_heff_min              =   0.0000000000000E+00
(PID.TID 0000.0001) %MON seaice_heff_mean             =   2.1589271977205E-01
(PID.TID 0000.0001) %MON seaice_heff_sd               =   1.0702089236784E+00
(PID.TID 0000.0001) %MON seaice_heff_del2             =   3.9011490209154E-03
(PID.TID 0000.0001) %MON seaice_hsnow_max             =   8.3240237556747E+00
(PID.TID 0000.0001) %MON seaice_hsnow_min             =   0.0000000000000E+00
(PID.TID 0000.0001) %MON seaice_hsnow_mean            =   2.4478425478890E-02
(PID.TID 0000.0001) %MON seaice_hsnow_sd              =   1.5749039877550E-01
(PID.TID 0000.0001) %MON seaice_hsnow_del2            =   1.2515293666395E-03
(PID.TID 0000.0001) // =======================================================
(PID.TID 0000.0001) // End MONITOR SEAICE statistics
(PID.TID 0000.0001) // =======================================================
 Computing Diagnostic #     86  oceQnet      Counter:       4   Parms: SM      U1      
 Computing Diagnostic #     87  oceQsw       Counter:       4   Parms: SM      U1      
 Computing Diagnostic #     84  oceFWflx     Counter:       4   Parms: SM      U1      
 Computing Diagnostic #     85  oceSflux     Counter:       4   Parms: SM      U1      
 Computing Diagnostic #     80  oceTAUX      Counter:       4   Parms: UU      U1      
           Vector  Mate for  oceTAUX      Diagnostic #     81  oceTAUY  exists 
 Computing Diagnostic #     81  oceTAUY      Counter:       4   Parms: VV      U1      
           Vector  Mate for  oceTAUY      Diagnostic #     80  oceTAUX  exists 
 Computing Diagnostic #     26  THETA        Counter:       4   Parms: SMR     MR      
 Computing Diagnostic #     27  SALT         Counter:       4   Parms: SMR     MR      
 Computing Diagnostic #     30  UVEL         Counter:       4   Parms: UUR     MR      
           Vector  Mate for  UVEL         Diagnostic #     31  VVEL     exists 
 Computing Diagnostic #     31  VVEL         Counter:       4   Parms: VVR     MR      
           Vector  Mate for  VVEL         Diagnostic #     30  UVEL     exists 
 Computing Diagnostic #    214  SIarea       Counter:       4   Parms: SM      M1      
 Computing Diagnostic #    217  SIheff       Counter:       4   Parms: SM      M1      
 Computing Diagnostic #    219  SIhsnow      Counter:       4   Parms: SM      M1      
 Computing Diagnostic #     83  sIceLoad     Counter:       4   Parms: SM      U1      
 Computing Diagnostic #    223  SIuice       Counter:       4   Parms: UU      M1      
           Vector  Mate for  SIuice       Diagnostic #    224  SIvice   exists 
 Computing Diagnostic #    224  SIvice       Counter:       4   Parms: VV      M1      
           Vector  Mate for  SIvice       Diagnostic #    223  SIuice   exists 
 Computing Diagnostic #    225  SItaux       Counter:       4   Parms: UU      U1      
           Vector  Mate for  SItaux       Diagnostic #    226  SItauy   exists 
 Computing Diagnostic #    226  SItauy       Counter:       4   Parms: VV      U1      
           Vector  Mate for  SItauy       Diagnostic #    225  SItaux   exists 
 Computing Diagnostic #    285  SIareaN      Counter:       4   Parms: SM      MX      
 Computing Diagnostic #    284  SIheffN      Counter:       4   Parms: SM      MX      
 Computing Diagnostic #    286  SIhsnowN     Counter:       4   Parms: SM      MX      
 Compute Stats, Diag. #    214  SIarea    vol(   0 ): 3.580E+14  Parms: SM      M1      
 Compute Stats, Diag. #    217  SIheff    vol(   0 ): 3.580E+14  Parms: SM      M1      
 Compute Stats, Diag. #    219  SIhsnow   vol(   0 ): 3.580E+14  Parms: SM      M1      
 Compute Stats, Diag. #     83  sIceLoad  vol(   0 ): 3.580E+14  Parms: SM      U1      
 Compute Stats, Diag. #    223  SIuice    vol(   0 ): 3.513E+14  Parms: UU      M1      
 Compute Stats, Diag. #    224  SIvice    vol(   0 ): 3.508E+14  Parms: VV      M1      
 Compute Stats, Diag. #    225  SItaux    vol(   0 ): 3.513E+14  Parms: UU      U1      
 Compute Stats, Diag. #    226  SItauy    vol(   0 ): 3.508E+14  Parms: VV      U1      
 cg2d: Sum(rhs),rhsMax =   4.87205449867971E+01  2.95007056994353E-01
 Compute Stats, Diag. #    214  SIarea    vol(   0 ): 3.580E+14  Parms: SM      M1      
 Compute Stats, Diag. #    217  SIheff    vol(   0 ): 3.580E+14  Parms: SM      M1      
 Compute Stats, Diag. #    219  SIhsnow   vol(   0 ): 3.580E+14  Parms: SM      M1      
 Compute Stats, Diag. #     83  sIceLoad  vol(   0 ): 3.580E+14  Parms: SM      U1      
 Compute Stats, Diag. #    223  SIuice    vol(   0 ): 3.513E+14  Parms: UU      M1      
 Compute Stats, Diag. #    224  SIvice    vol(   0 ): 3.508E+14  Parms: VV      M1      
 Compute Stats, Diag. #    225  SItaux    vol(   0 ): 3.513E+14  Parms: UU      U1      
 Compute Stats, Diag. #    226  SItauy    vol(   0 ): 3.508E+14  Parms: VV      U1      
 cg2d: Sum(rhs),rhsMax =   4.85205224265139E+01  2.95168485171816E-01
 Compute Stats, Diag. #    214  SIarea    vol(   0 ): 3.580E+14  Parms: SM      M1      
 Compute Stats, Diag. #    217  SIheff    vol(   0 ): 3.580E+14  Parms: SM      M1      
 Compute Stats, Diag. #    219  SIhsnow   vol(   0 ): 3.580E+14  Parms: SM      M1      
 Compute Stats, Diag. #     83  sIceLoad  vol(   0 ): 3.580E+14  Parms: SM      U1      
 Compute Stats, Diag. #    223  SIuice    vol(   0 ): 3.513E+14  Parms: UU      M1      
 Compute Stats, Diag. #    224  SIvice    vol(   0 ): 3.508E+14  Parms: VV      M1      
 Compute Stats, Diag. #    225  SItaux    vol(   0 ): 3.513E+14  Parms: UU      U1      
 Compute Stats, Diag. #    226  SItauy    vol(   0 ): 3.508E+14  Parms: VV      U1      
 cg2d: Sum(rhs),rhsMax =   4.83287530302154E+01  2.95316918516363E-01
 Compute Stats, Diag. #    214  SIarea    vol(   0 ): 3.580E+14  Parms: SM      M1      
 Compute Stats, Diag. #    217  SIheff    vol(   0 ): 3.580E+14  Parms: SM      M1      
 Compute Stats, Diag. #    219  SIhsnow   vol(   0 ): 3.580E+14  Parms: SM      M1      
 Compute Stats, Diag. #     83  sIceLoad  vol(   0 ): 3.580E+14  Parms: SM      U1      
 Compute Stats, Diag. #    223  SIuice    vol(   0 ): 3.513E+14  Parms: UU      M1      
 Compute Stats, Diag. #    224  SIvice    vol(   0 ): 3.508E+14  Parms: VV      M1      
 Compute Stats, Diag. #    225  SItaux    vol(   0 ): 3.513E+14  Parms: UU      U1      
 Compute Stats, Diag. #    226  SItauy    vol(   0 ): 3.508E+14  Parms: VV      U1      
 cg2d: Sum(rhs),rhsMax =   4.81494294821356E+01  2.95450944511176E-01
 Computing Diagnostic #     86  oceQnet      Counter:       4   Parms: SM      U1      
 Computing Diagnostic #     87  oceQsw       Counter:       4   Parms: SM      U1      
 Computing Diagnostic #     84  oceFWflx     Counter:       4   Parms: SM      U1      
 Computing Diagnostic #     85  oceSflux     Counter:       4   Parms: SM      U1      
 Computing Diagnostic #     80  oceTAUX      Counter:       4   Parms: UU      U1      
           Vector  Mate for  oceTAUX      Diagnostic #     81  oceTAUY  exists 
 Computing Diagnostic #     81  oceTAUY      Counter:       4   Parms: VV      U1      
           Vector  Mate for  oceTAUY      Diagnostic #     80  oceTAUX  exists 
 Computing Diagnostic #     26  THETA        Counter:       4   Parms: SMR     MR      
 Computing Diagnostic #     27  SALT         Counter:       4   Parms: SMR     MR      
 Computing Diagnostic #     30  UVEL         Counter:       4   Parms: UUR     MR      
           Vector  Mate for  UVEL         Diagnostic #     31  VVEL     exists 
 Computing Diagnostic #     31  VVEL         Counter:       4   Parms: VVR     MR      
           Vector  Mate for  VVEL         Diagnostic #     30  UVEL     exists 
 Computing Diagnostic #    214  SIarea       Counter:       4   Parms: SM      M1      
 Computing Diagnostic #    217  SIheff       Counter:       4   Parms: SM      M1      
 Computing Diagnostic #    219  SIhsnow      Counter:       4   Parms: SM      M1      
 Computing Diagnostic #     83  sIceLoad     Counter:       4   Parms: SM      U1      
 Computing Diagnostic #    223  SIuice       Counter:       4   Parms: UU      M1      
           Vector  Mate for  SIuice       Diagnostic #    224  SIvice   exists 
 Computing Diagnostic #    224  SIvice       Counter:       4   Parms: VV      M1      
           Vector  Mate for  SIvice       Diagnostic #    223  SIuice   exists 
 Computing Diagnostic #    225  SItaux       Counter:       4   Parms: UU      U1      
           Vector  Mate for  SItaux       Diagnostic #    226  SItauy   exists 
 Computing Diagnostic #    226  SItauy       Counter:       4   Parms: VV      U1      
           Vector  Mate for  SItauy       Diagnostic #    225  SItaux   exists 
 Computing Diagnostic #    285  SIareaN      Counter:       4   Parms: SM      MX      
 Computing Diagnostic #    284  SIheffN      Counter:       4   Parms: SM      MX      
 Computing Diagnostic #    286  SIhsnowN     Counter:       4   Parms: SM      MX      
 Compute Stats, Diag. #    214  SIarea    vol(   0 ): 3.580E+14  Parms: SM      M1      
 Compute Stats, Diag. #    217  SIheff    vol(   0 ): 3.580E+14  Parms: SM      M1      
 Compute Stats, Diag. #    219  SIhsnow   vol(   0 ): 3.580E+14  Parms: SM      M1      
 Compute Stats, Diag. #     83  sIceLoad  vol(   0 ): 3.580E+14  Parms: SM      U1      
 Compute Stats, Diag. #    223  SIuice    vol(   0 ): 3.513E+14  Parms: UU      M1      
 Compute Stats, Diag. #    224  SIvice    vol(   0 ): 3.508E+14  Parms: VV      M1      
 Compute Stats, Diag. #    225  SItaux    vol(   0 ): 3.513E+14  Parms: UU      U1      
 Compute Stats, Diag. #    226  SItauy    vol(   0 ): 3.508E+14  Parms: VV      U1      
 cg2d: Sum(rhs),rhsMax =   4.79593569502541E+01  2.95569072768807E-01
 Compute Stats, Diag. #    214  SIarea    vol(   0 ): 3.580E+14  Parms: SM      M1      
 Compute Stats, Diag. #    217  SIheff    vol(   0 ): 3.580E+14  Parms: SM      M1      
 Compute Stats, Diag. #    219  SIhsnow   vol(   0 ): 3.580E+14  Parms: SM      M1      
 Compute Stats, Diag. #     83  sIceLoad  vol(   0 ): 3.580E+14  Parms: SM      U1      
 Compute Stats, Diag. #    223  SIuice    vol(   0 ): 3.513E+14  Parms: UU      M1      
 Compute Stats, Diag. #    224  SIvice    vol(   0 ): 3.508E+14  Parms: VV      M1      
 Compute Stats, Diag. #    225  SItaux    vol(   0 ): 3.513E+14  Parms: UU      U1      
 Compute Stats, Diag. #    226  SItauy    vol(   0 ): 3.508E+14  Parms: VV      U1      
 cg2d: Sum(rhs),rhsMax =   4.77751544796289E+01  2.95670797882474E-01
 Compute Stats, Diag. #    214  SIarea    vol(   0 ): 3.580E+14  Parms: SM      M1      
 Compute Stats, Diag. #    217  SIheff    vol(   0 ): 3.580E+14  Parms: SM      M1      
 Compute Stats, Diag. #    219  SIhsnow   vol(   0 ): 3.580E+14  Parms: SM      M1      
 Compute Stats, Diag. #     83  sIceLoad  vol(   0 ): 3.580E+14  Parms: SM      U1      
 Compute Stats, Diag. #    223  SIuice    vol(   0 ): 3.513E+14  Parms: UU      M1      
 Compute Stats, Diag. #    224  SIvice    vol(   0 ): 3.508E+14  Parms: VV      M1      
 Compute Stats, Diag. #    225  SItaux    vol(   0 ): 3.513E+14  Parms: UU      U1      
 Compute Stats, Diag. #    226  SItauy    vol(   0 ): 3.508E+14  Parms: VV      U1      
 cg2d: Sum(rhs),rhsMax =   4.75903501484858E+01  2.95754874943974E-01
 Compute Stats, Diag. #    214  SIarea    vol(   0 ): 3.580E+14  Parms: SM      M1      
 Compute Stats, Diag. #    217  SIheff    vol(   0 ): 3.580E+14  Parms: SM      M1      
 Compute Stats, Diag. #    219  SIhsnow   vol(   0 ): 3.580E+14  Parms: SM      M1      
 Compute Stats, Diag. #     83  sIceLoad  vol(   0 ): 3.580E+14  Parms: SM      U1      
 Compute Stats, Diag. #    223  SIuice    vol(   0 ): 3.513E+14  Parms: UU      M1      
 Compute Stats, Diag. #    224  SIvice    vol(   0 ): 3.508E+14  Parms: VV      M1      
 Compute Stats, Diag. #    225  SItaux    vol(   0 ): 3.513E+14  Parms: UU      U1      
 Compute Stats, Diag. #    226  SItauy    vol(   0 ): 3.508E+14  Parms: VV      U1      
 cg2d: Sum(rhs),rhsMax =   4.74242242099677E+01  2.95820711103051E-01
(PID.TID 0000.0001)      cg2d_init_res =   1.58859953380290E-01
(PID.TID 0000.0001)      cg2d_iters(min,last) =      -1      28
(PID.TID 0000.0001)      cg2d_last_res =   2.37046477230246E-05
(PID.TID 0000.0001) // =======================================================
(PID.TID 0000.0001) // Begin MONITOR dynamic field statistics
(PID.TID 0000.0001) // =======================================================
(PID.TID 0000.0001) %MON time_tsnumber                =                   192
(PID.TID 0000.0001) %MON time_secondsf                =   1.7280000000000E+05
(PID.TID 0000.0001) %MON dynstat_eta_max              =   1.0804489066327E+00
(PID.TID 0000.0001) %MON dynstat_eta_min              =  -2.5656656052558E+00
(PID.TID 0000.0001) %MON dynstat_eta_mean             =  -1.5001796746837E-03
(PID.TID 0000.0001) %MON dynstat_eta_sd               =   6.6191117803871E-01
(PID.TID 0000.0001) %MON dynstat_eta_del2             =   6.7426211277048E-05
(PID.TID 0000.0001) %MON dynstat_uvel_max             =   8.3195637963839E-01
(PID.TID 0000.0001) %MON dynstat_uvel_min             =  -9.6396404974767E-01
(PID.TID 0000.0001) %MON dynstat_uvel_mean            =   8.7882694090459E-04
(PID.TID 0000.0001) %MON dynstat_uvel_sd              =   2.0373497151750E-02
(PID.TID 0000.0001) %MON dynstat_uvel_del2            =   9.5517096643103E-06
(PID.TID 0000.0001) %MON dynstat_vvel_max             =   1.3378552796457E+00
(PID.TID 0000.0001) %MON dynstat_vvel_min             =  -8.4261047904386E-01
(PID.TID 0000.0001) %MON dynstat_vvel_mean            =   1.0215314606241E-03
(PID.TID 0000.0001) %MON dynstat_vvel_sd              =   2.1156829091419E-02
(PID.TID 0000.0001) %MON dynstat_vvel_del2            =   9.8130401297055E-06
(PID.TID 0000.0001) %MON dynstat_wvel_max             =   1.4279274536444E-03
(PID.TID 0000.0001) %MON dynstat_wvel_min             =  -1.1118211250244E-03
(PID.TID 0000.0001) %MON dynstat_wvel_mean            =   6.6996786254110E-09
(PID.TID 0000.0001) %MON dynstat_wvel_sd              =   2.4680966454365E-05
(PID.TID 0000.0001) %MON dynstat_wvel_del2            =   2.6561722758068E-08
(PID.TID 0000.0001) %MON dynstat_theta_max            =   3.2468909389332E+01
(PID.TID 0000.0001) %MON dynstat_theta_min            =  -2.0416344268471E+00
(PID.TID 0000.0001) %MON dynstat_theta_mean           =   3.5904482178434E+00
(PID.TID 0000.0001) %MON dynstat_theta_sd             =   4.4360892240058E+00
(PID.TID 0000.0001) %MON dynstat_theta_del2           =   9.9846913783298E-05
(PID.TID 0000.0001) %MON dynstat_salt_max             =   4.0711543643734E+01
(PID.TID 0000.0001) %MON dynstat_salt_min             =   1.1940118011101E+01
(PID.TID 0000.0001) %MON dynstat_salt_mean            =   3.4725588281930E+01
(PID.TID 0000.0001) %MON dynstat_salt_sd              =   3.7702354342288E-01
(PID.TID 0000.0001) %MON dynstat_salt_del2            =   3.2248129852911E-05
(PID.TID 0000.0001) %MON dynstat_sst_max              =   3.2431944608939E+01
(PID.TID 0000.0001) %MON dynstat_sst_min              =  -1.8349403695773E+00
(PID.TID 0000.0001) %MON dynstat_sst_mean             =   1.8485336210824E+01
(PID.TID 0000.0001) %MON dynstat_sst_sd               =   1.0140719989428E+01
(PID.TID 0000.0001) %MON dynstat_sst_del2             =   8.2752808298795E-04
(PID.TID 0000.0001) %MON dynstat_sss_max              =   3.9188442437178E+01
(PID.TID 0000.0001) %MON dynstat_sss_min              =   1.1940118011101E+01
(PID.TID 0000.0001) %MON dynstat_sss_mean             =   3.4694332892006E+01
(PID.TID 0000.0001) %MON dynstat_sss_sd               =   1.1415042534362E+00
(PID.TID 0000.0001) %MON dynstat_sss_del2             =   9.0247670379987E-04
(PID.TID 0000.0001) %MON forcing_qnet_max             =   1.7807769775391E+03
(PID.TID 0000.0001) %MON forcing_qnet_min             =  -7.5685838140453E+02
(PID.TID 0000.0001) %MON forcing_qnet_mean            =  -2.1938222961949E+01
(PID.TID 0000.0001) %MON forcing_qnet_sd              =   2.0203338831768E+02
(PID.TID 0000.0001) %MON forcing_qnet_del2            =   3.3604096260692E-01
(PID.TID 0000.0001) %MON forcing_qsw_max              =   0.0000000000000E+00
(PID.TID 0000.0001) %MON forcing_qsw_min              =  -1.0848893911165E+02
(PID.TID 0000.0001) %MON forcing_qsw_mean             =  -2.2237659041398E+01
(PID.TID 0000.0001) %MON forcing_qsw_sd               =   3.1124630627338E+01
(PID.TID 0000.0001) %MON forcing_qsw_del2             =   1.9196691751531E-02
(PID.TID 0000.0001) %MON forcing_empmr_max            =   1.0597059736028E-03
(PID.TID 0000.0001) %MON forcing_empmr_min            =  -7.5173385441303E-02
(PID.TID 0000.0001) %MON forcing_empmr_mean           =  -6.0083241472576E-06
(PID.TID 0000.0001) %MON forcing_empmr_sd             =   3.1573203083108E-04
(PID.TID 0000.0001) %MON forcing_empmr_del2           =   3.2026043097263E-06
(PID.TID 0000.0001) %MON forcing_fu_max               =   6.5739098191261E-01
(PID.TID 0000.0001) %MON forcing_fu_min               =  -1.3165893946488E+00
(PID.TID 0000.0001) %MON forcing_fu_mean              =   3.6124030526558E-03
(PID.TID 0000.0001) %MON forcing_fu_sd                =   9.8609798081275E-02
(PID.TID 0000.0001) %MON forcing_fu_del2              =   1.4995520358464E-04
(PID.TID 0000.0001) %MON forcing_fv_max               =   1.5620046854019E+00
(PID.TID 0000.0001) %MON forcing_fv_min               =  -9.6223861458133E-01
(PID.TID 0000.0001) %MON forcing_fv_mean              =  -6.5692125447837E-03
(PID.TID 0000.0001) %MON forcing_fv_sd                =   1.1124786069578E-01
(PID.TID 0000.0001) %MON forcing_fv_del2              =   1.5150888720685E-04
(PID.TID 0000.0001) %MON trAdv_CFL_u_max              =   1.5815031640434E-02
(PID.TID 0000.0001) %MON trAdv_CFL_v_max              =   2.2907123613630E-02
(PID.TID 0000.0001) %MON trAdv_CFL_w_max              =   2.8896254095644E-02
(PID.TID 0000.0001) %MON advcfl_uvel_max              =   1.5948703708989E-02
(PID.TID 0000.0001) %MON advcfl_vvel_max              =   2.3748140862005E-02
(PID.TID 0000.0001) %MON advcfl_wvel_max              =   2.8786580345667E-02
(PID.TID 0000.0001) %MON advcfl_W_hf_max              =   2.9159121806306E-02
(PID.TID 0000.0001) %MON pe_b_mean                    =   5.7631525430472E-04
(PID.TID 0000.0001) %MON ke_max                       =   9.3391076009079E-01
(PID.TID 0000.0001) %MON ke_mean                      =   4.1685957300437E-04
(PID.TID 0000.0001) %MON ke_vol                       =   1.3349973379728E+18
(PID.TID 0000.0001) %MON vort_r_min                   =  -2.5244873720924E-05
(PID.TID 0000.0001) %MON vort_r_max                   =   3.8008380657813E-05
(PID.TID 0000.0001) %MON vort_a_mean                  =  -1.9727864647440E-05
(PID.TID 0000.0001) %MON vort_a_sd                    =   7.4542995925383E-05
(PID.TID 0000.0001) %MON vort_p_mean                  =  -2.1760539620433E-05
(PID.TID 0000.0001) %MON vort_p_sd                    =   9.7247034691769E-05
(PID.TID 0000.0001) %MON surfExpan_theta_mean         =  -6.7786154901518E-07
(PID.TID 0000.0001) %MON surfExpan_salt_mean          =  -8.8747875743449E-09
(PID.TID 0000.0001) // =======================================================
(PID.TID 0000.0001) // End MONITOR dynamic field statistics
(PID.TID 0000.0001) // =======================================================
(PID.TID 0000.0001) // =======================================================
(PID.TID 0000.0001) // Begin MONITOR SEAICE statistics
(PID.TID 0000.0001) // =======================================================
(PID.TID 0000.0001) %MON seaice_tsnumber              =                   192
(PID.TID 0000.0001) %MON seaice_time_sec              =   1.7280000000000E+05
(PID.TID 0000.0001) %MON seaice_uice_max              =   4.0000000000000E-01
(PID.TID 0000.0001) %MON seaice_uice_min              =  -4.0000000000000E-01
(PID.TID 0000.0001) %MON seaice_uice_mean             =  -8.3054598624025E-03
(PID.TID 0000.0001) %MON seaice_uice_sd               =   1.9802383574176E-01
(PID.TID 0000.0001) %MON seaice_uice_del2             =   2.2931571122150E-04
(PID.TID 0000.0001) %MON seaice_vice_max              =   4.0000000000000E-01
(PID.TID 0000.0001) %MON seaice_vice_min              =  -4.0000000000000E-01
(PID.TID 0000.0001) %MON seaice_vice_mean             =  -2.1960776359499E-02
(PID.TID 0000.0001) %MON seaice_vice_sd               =   2.1302038025672E-01
(PID.TID 0000.0001) %MON seaice_vice_del2             =   2.3932563818061E-04
(PID.TID 0000.0001) %MON seaice_area_max              =   1.0000000000000E+00
(PID.TID 0000.0001) %MON seaice_area_min              =   0.0000000000000E+00
(PID.TID 0000.0001) %MON seaice_area_mean             =   6.8928934999133E-02
(PID.TID 0000.0001) %MON seaice_area_sd               =   2.3516062602765E-01
(PID.TID 0000.0001) %MON seaice_area_del2             =   4.4522809341904E-04
(PID.TID 0000.0001) %MON seaice_heff_max              =   2.5199067254085E+01
(PID.TID 0000.0001) %MON seaice_heff_min              =   0.0000000000000E+00
(PID.TID 0000.0001) %MON seaice_heff_mean             =   2.1582952937458E-01
(PID.TID 0000.0001) %MON seaice_heff_sd               =   1.0701348886455E+00
(PID.TID 0000.0001) %MON seaice_heff_del2             =   3.9002600226409E-03
(PID.TID 0000.0001) %MON seaice_hsnow_max             =   8.3228424741246E+00
(PID.TID 0000.0001) %MON seaice_hsnow_min             =   0.0000000000000E+00
(PID.TID 0000.0001) %MON seaice_hsnow_mean            =   2.4471990069240E-02
(PID.TID 0000.0001) %MON seaice_hsnow_sd              =   1.5746334324438E-01
(PID.TID 0000.0001) %MON seaice_hsnow_del2            =   1.2513452910424E-03
(PID.TID 0000.0001) // =======================================================
(PID.TID 0000.0001) // End MONITOR SEAICE statistics
(PID.TID 0000.0001) // =======================================================
 Computing Diagnostic #     86  oceQnet      Counter:       4   Parms: SM      U1      
 Computing Diagnostic #     87  oceQsw       Counter:       4   Parms: SM      U1      
 Computing Diagnostic #     84  oceFWflx     Counter:       4   Parms: SM      U1      
 Computing Diagnostic #     85  oceSflux     Counter:       4   Parms: SM      U1      
 Computing Diagnostic #     80  oceTAUX      Counter:       4   Parms: UU      U1      
           Vector  Mate for  oceTAUX      Diagnostic #     81  oceTAUY  exists 
 Computing Diagnostic #     81  oceTAUY      Counter:       4   Parms: VV      U1      
           Vector  Mate for  oceTAUY      Diagnostic #     80  oceTAUX  exists 
 Computing Diagnostic #     26  THETA        Counter:       4   Parms: SMR     MR      
 Computing Diagnostic #     27  SALT         Counter:       4   Parms: SMR     MR      
 Computing Diagnostic #     30  UVEL         Counter:       4   Parms: UUR     MR      
           Vector  Mate for  UVEL         Diagnostic #     31  VVEL     exists 
 Computing Diagnostic #     31  VVEL         Counter:       4   Parms: VVR     MR      
           Vector  Mate for  VVEL         Diagnostic #     30  UVEL     exists 
 Computing Diagnostic #    214  SIarea       Counter:       4   Parms: SM      M1      
 Computing Diagnostic #    217  SIheff       Counter:       4   Parms: SM      M1      
 Computing Diagnostic #    219  SIhsnow      Counter:       4   Parms: SM      M1      
 Computing Diagnostic #     83  sIceLoad     Counter:       4   Parms: SM      U1      
 Computing Diagnostic #    223  SIuice       Counter:       4   Parms: UU      M1      
           Vector  Mate for  SIuice       Diagnostic #    224  SIvice   exists 
 Computing Diagnostic #    224  SIvice       Counter:       4   Parms: VV      M1      
           Vector  Mate for  SIvice       Diagnostic #    223  SIuice   exists 
 Computing Diagnostic #    225  SItaux       Counter:       4   Parms: UU      U1      
           Vector  Mate for  SItaux       Diagnostic #    226  SItauy   exists 
 Computing Diagnostic #    226  SItauy       Counter:       4   Parms: VV      U1      
           Vector  Mate for  SItauy       Diagnostic #    225  SItaux   exists 
 Computing Diagnostic #    285  SIareaN      Counter:       4   Parms: SM      MX      
 Computing Diagnostic #    284  SIheffN      Counter:       4   Parms: SM      MX      
 Computing Diagnostic #    286  SIhsnowN     Counter:       4   Parms: SM      MX      
 Compute Stats, Diag. #    214  SIarea    vol(   0 ): 3.580E+14  Parms: SM      M1      
 Compute Stats, Diag. #    217  SIheff    vol(   0 ): 3.580E+14  Parms: SM      M1      
 Compute Stats, Diag. #    219  SIhsnow   vol(   0 ): 3.580E+14  Parms: SM      M1      
 Compute Stats, Diag. #     83  sIceLoad  vol(   0 ): 3.580E+14  Parms: SM      U1      
 Compute Stats, Diag. #    223  SIuice    vol(   0 ): 3.513E+14  Parms: UU      M1      
 Compute Stats, Diag. #    224  SIvice    vol(   0 ): 3.508E+14  Parms: VV      M1      
 Compute Stats, Diag. #    225  SItaux    vol(   0 ): 3.513E+14  Parms: UU      U1      
 Compute Stats, Diag. #    226  SItauy    vol(   0 ): 3.508E+14  Parms: VV      U1      
 cg2d: Sum(rhs),rhsMax =   4.72544205964834E+01  2.95868735964427E-01
 Compute Stats, Diag. #    214  SIarea    vol(   0 ): 3.580E+14  Parms: SM      M1      
 Compute Stats, Diag. #    217  SIheff    vol(   0 ): 3.580E+14  Parms: SM      M1      
 Compute Stats, Diag. #    219  SIhsnow   vol(   0 ): 3.580E+14  Parms: SM      M1      
 Compute Stats, Diag. #     83  sIceLoad  vol(   0 ): 3.580E+14  Parms: SM      U1      
 Compute Stats, Diag. #    223  SIuice    vol(   0 ): 3.513E+14  Parms: UU      M1      
 Compute Stats, Diag. #    224  SIvice    vol(   0 ): 3.508E+14  Parms: VV      M1      
 Compute Stats, Diag. #    225  SItaux    vol(   0 ): 3.513E+14  Parms: UU      U1      
 Compute Stats, Diag. #    226  SItauy    vol(   0 ): 3.508E+14  Parms: VV      U1      
 cg2d: Sum(rhs),rhsMax =   4.70849144591686E+01  2.95897944144210E-01
 Compute Stats, Diag. #    214  SIarea    vol(   0 ): 3.580E+14  Parms: SM      M1      
 Compute Stats, Diag. #    217  SIheff    vol(   0 ): 3.580E+14  Parms: SM      M1      
 Compute Stats, Diag. #    219  SIhsnow   vol(   0 ): 3.580E+14  Parms: SM      M1      
 Compute Stats, Diag. #     83  sIceLoad  vol(   0 ): 3.580E+14  Parms: SM      U1      
 Compute Stats, Diag. #    223  SIuice    vol(   0 ): 3.513E+14  Parms: UU      M1      
 Compute Stats, Diag. #    224  SIvice    vol(   0 ): 3.508E+14  Parms: VV      M1      
 Compute Stats, Diag. #    225  SItaux    vol(   0 ): 3.513E+14  Parms: UU      U1      
 Compute Stats, Diag. #    226  SItauy    vol(   0 ): 3.508E+14  Parms: VV      U1      
 cg2d: Sum(rhs),rhsMax =   4.69122969776289E+01  2.95908645044754E-01
 Compute Stats, Diag. #    214  SIarea    vol(   0 ): 3.580E+14  Parms: SM      M1      
 Compute Stats, Diag. #    217  SIheff    vol(   0 ): 3.580E+14  Parms: SM      M1      
 Compute Stats, Diag. #    219  SIhsnow   vol(   0 ): 3.580E+14  Parms: SM      M1      
 Compute Stats, Diag. #     83  sIceLoad  vol(   0 ): 3.580E+14  Parms: SM      U1      
 Compute Stats, Diag. #    223  SIuice    vol(   0 ): 3.513E+14  Parms: UU      M1      
 Compute Stats, Diag. #    224  SIvice    vol(   0 ): 3.508E+14  Parms: VV      M1      
 Compute Stats, Diag. #    225  SItaux    vol(   0 ): 3.513E+14  Parms: UU      U1      
 Compute Stats, Diag. #    226  SItauy    vol(   0 ): 3.508E+14  Parms: VV      U1      
 cg2d: Sum(rhs),rhsMax =   4.67395813730208E+01  2.95901548876815E-01
 Computing Diagnostic #     86  oceQnet      Counter:       4   Parms: SM      U1      
 Computing Diagnostic #     87  oceQsw       Counter:       4   Parms: SM      U1      
 Computing Diagnostic #     84  oceFWflx     Counter:       4   Parms: SM      U1      
 Computing Diagnostic #     85  oceSflux     Counter:       4   Parms: SM      U1      
 Computing Diagnostic #     80  oceTAUX      Counter:       4   Parms: UU      U1      
           Vector  Mate for  oceTAUX      Diagnostic #     81  oceTAUY  exists 
 Computing Diagnostic #     81  oceTAUY      Counter:       4   Parms: VV      U1      
           Vector  Mate for  oceTAUY      Diagnostic #     80  oceTAUX  exists 
 Computing Diagnostic #     26  THETA        Counter:       4   Parms: SMR     MR      
 Computing Diagnostic #     27  SALT         Counter:       4   Parms: SMR     MR      
 Computing Diagnostic #     30  UVEL         Counter:       4   Parms: UUR     MR      
           Vector  Mate for  UVEL         Diagnostic #     31  VVEL     exists 
 Computing Diagnostic #     31  VVEL         Counter:       4   Parms: VVR     MR      
           Vector  Mate for  VVEL         Diagnostic #     30  UVEL     exists 
 Computing Diagnostic #    214  SIarea       Counter:       4   Parms: SM      M1      
 Computing Diagnostic #    217  SIheff       Counter:       4   Parms: SM      M1      
 Computing Diagnostic #    219  SIhsnow      Counter:       4   Parms: SM      M1      
 Computing Diagnostic #     83  sIceLoad     Counter:       4   Parms: SM      U1      
 Computing Diagnostic #    223  SIuice       Counter:       4   Parms: UU      M1      
           Vector  Mate for  SIuice       Diagnostic #    224  SIvice   exists 
 Computing Diagnostic #    224  SIvice       Counter:       4   Parms: VV      M1      
           Vector  Mate for  SIvice       Diagnostic #    223  SIuice   exists 
 Computing Diagnostic #    225  SItaux       Counter:       4   Parms: UU      U1      
           Vector  Mate for  SItaux       Diagnostic #    226  SItauy   exists 
 Computing Diagnostic #    226  SItauy       Counter:       4   Parms: VV      U1      
           Vector  Mate for  SItauy       Diagnostic #    225  SItaux   exists 
 Computing Diagnostic #    285  SIareaN      Counter:       4   Parms: SM      MX      
 Computing Diagnostic #    284  SIheffN      Counter:       4   Parms: SM      MX      
 Computing Diagnostic #    286  SIhsnowN     Counter:       4   Parms: SM      MX      
 Compute Stats, Diag. #    214  SIarea    vol(   0 ): 3.580E+14  Parms: SM      M1      
 Compute Stats, Diag. #    217  SIheff    vol(   0 ): 3.580E+14  Parms: SM      M1      
 Compute Stats, Diag. #    219  SIhsnow   vol(   0 ): 3.580E+14  Parms: SM      M1      
 Compute Stats, Diag. #     83  sIceLoad  vol(   0 ): 3.580E+14  Parms: SM      U1      
 Compute Stats, Diag. #    223  SIuice    vol(   0 ): 3.513E+14  Parms: UU      M1      
 Compute Stats, Diag. #    224  SIvice    vol(   0 ): 3.508E+14  Parms: VV      M1      
 Compute Stats, Diag. #    225  SItaux    vol(   0 ): 3.513E+14  Parms: UU      U1      
 Compute Stats, Diag. #    226  SItauy    vol(   0 ): 3.508E+14  Parms: VV      U1      
 cg2d: Sum(rhs),rhsMax =   4.65726960970345E+01  2.95876758749386E-01
 Compute Stats, Diag. #    214  SIarea    vol(   0 ): 3.580E+14  Parms: SM      M1      
 Compute Stats, Diag. #    217  SIheff    vol(   0 ): 3.580E+14  Parms: SM      M1      
 Compute Stats, Diag. #    219  SIhsnow   vol(   0 ): 3.580E+14  Parms: SM      M1      
 Compute Stats, Diag. #     83  sIceLoad  vol(   0 ): 3.580E+14  Parms: SM      U1      
 Compute Stats, Diag. #    223  SIuice    vol(   0 ): 3.513E+14  Parms: UU      M1      
 Compute Stats, Diag. #    224  SIvice    vol(   0 ): 3.508E+14  Parms: VV      M1      
 Compute Stats, Diag. #    225  SItaux    vol(   0 ): 3.513E+14  Parms: UU      U1      
 Compute Stats, Diag. #    226  SItauy    vol(   0 ): 3.508E+14  Parms: VV      U1      
 cg2d: Sum(rhs),rhsMax =   4.64095474875334E+01  2.95835083877911E-01
 Compute Stats, Diag. #    214  SIarea    vol(   0 ): 3.580E+14  Parms: SM      M1      
 Compute Stats, Diag. #    217  SIheff    vol(   0 ): 3.580E+14  Parms: SM      M1      
 Compute Stats, Diag. #    219  SIhsnow   vol(   0 ): 3.580E+14  Parms: SM      M1      
 Compute Stats, Diag. #     83  sIceLoad  vol(   0 ): 3.580E+14  Parms: SM      U1      
 Compute Stats, Diag. #    223  SIuice    vol(   0 ): 3.513E+14  Parms: UU      M1      
 Compute Stats, Diag. #    224  SIvice    vol(   0 ): 3.508E+14  Parms: VV      M1      
 Compute Stats, Diag. #    225  SItaux    vol(   0 ): 3.513E+14  Parms: UU      U1      
 Compute Stats, Diag. #    226  SItauy    vol(   0 ): 3.508E+14  Parms: VV      U1      
 cg2d: Sum(rhs),rhsMax =   4.62571951414250E+01  2.95777476514008E-01
 Compute Stats, Diag. #    214  SIarea    vol(   0 ): 3.580E+14  Parms: SM      M1      
 Compute Stats, Diag. #    217  SIheff    vol(   0 ): 3.580E+14  Parms: SM      M1      
 Compute Stats, Diag. #    219  SIhsnow   vol(   0 ): 3.580E+14  Parms: SM      M1      
 Compute Stats, Diag. #     83  sIceLoad  vol(   0 ): 3.580E+14  Parms: SM      U1      
 Compute Stats, Diag. #    223  SIuice    vol(   0 ): 3.513E+14  Parms: UU      M1      
 Compute Stats, Diag. #    224  SIvice    vol(   0 ): 3.508E+14  Parms: VV      M1      
 Compute Stats, Diag. #    225  SItaux    vol(   0 ): 3.513E+14  Parms: UU      U1      
 Compute Stats, Diag. #    226  SItauy    vol(   0 ): 3.508E+14  Parms: VV      U1      
 cg2d: Sum(rhs),rhsMax =   4.61013323769435E+01  2.95704992524517E-01
(PID.TID 0000.0001)      cg2d_init_res =   1.54556543843538E-01
(PID.TID 0000.0001)      cg2d_iters(min,last) =      -1      28
(PID.TID 0000.0001)      cg2d_last_res =   2.52637578293154E-05
(PID.TID 0000.0001) // =======================================================
(PID.TID 0000.0001) // Begin MONITOR dynamic field statistics
(PID.TID 0000.0001) // =======================================================
(PID.TID 0000.0001) %MON time_tsnumber                =                   200
(PID.TID 0000.0001) %MON time_secondsf                =   1.8000000000000E+05
(PID.TID 0000.0001) %MON dynstat_eta_max              =   1.0786834028360E+00
(PID.TID 0000.0001) %MON dynstat_eta_min              =  -2.5264586558749E+00
(PID.TID 0000.0001) %MON dynstat_eta_mean             =  -1.4583323809690E-03
(PID.TID 0000.0001) %MON dynstat_eta_sd               =   6.6017995025585E-01
(PID.TID 0000.0001) %MON dynstat_eta_del2             =   6.6825283430620E-05
(PID.TID 0000.0001) %MON dynstat_uvel_max             =   8.4003546501228E-01
(PID.TID 0000.0001) %MON dynstat_uvel_min             =  -9.6064633176619E-01
(PID.TID 0000.0001) %MON dynstat_uvel_mean            =   9.3517507189247E-04
(PID.TID 0000.0001) %MON dynstat_uvel_sd              =   2.0364591738246E-02
(PID.TID 0000.0001) %MON dynstat_uvel_del2            =   9.3887541640794E-06
(PID.TID 0000.0001) %MON dynstat_vvel_max             =   1.3183066165959E+00
(PID.TID 0000.0001) %MON dynstat_vvel_min             =  -8.4114198717718E-01
(PID.TID 0000.0001) %MON dynstat_vvel_mean            =   1.0687337086865E-03
(PID.TID 0000.0001) %MON dynstat_vvel_sd              =   2.1064009686950E-02
(PID.TID 0000.0001) %MON dynstat_vvel_del2            =   9.6472423922302E-06
(PID.TID 0000.0001) %MON dynstat_wvel_max             =   1.4978372728254E-03
(PID.TID 0000.0001) %MON dynstat_wvel_min             =  -9.3983579813595E-04
(PID.TID 0000.0001) %MON dynstat_wvel_mean            =  -1.9563761631934E-09
(PID.TID 0000.0001) %MON dynstat_wvel_sd              =   2.4248127911578E-05
(PID.TID 0000.0001) %MON dynstat_wvel_del2            =   2.5486291130822E-08
(PID.TID 0000.0001) %MON dynstat_theta_max            =   3.2443629032630E+01
(PID.TID 0000.0001) %MON dynstat_theta_min            =  -2.0415885052837E+00
(PID.TID 0000.0001) %MON dynstat_theta_mean           =   3.5904615573439E+00
(PID.TID 0000.0001) %MON dynstat_theta_sd             =   4.4361635687067E+00
(PID.TID 0000.0001) %MON dynstat_theta_del2           =   9.9589694432114E-05
(PID.TID 0000.0001) %MON dynstat_salt_max             =   4.0711544738008E+01
(PID.TID 0000.0001) %MON dynstat_salt_min             =   1.1845292029505E+01
(PID.TID 0000.0001) %MON dynstat_salt_mean            =   3.4725587491829E+01
(PID.TID 0000.0001) %MON dynstat_salt_sd              =   3.7702186482071E-01
(PID.TID 0000.0001) %MON dynstat_salt_del2            =   3.2026216436126E-05
(PID.TID 0000.0001) %MON dynstat_sst_max              =   3.2425153892239E+01
(PID.TID 0000.0001) %MON dynstat_sst_min              =  -1.8326017106455E+00
(PID.TID 0000.0001) %MON dynstat_sst_mean             =   1.8488842624622E+01
(PID.TID 0000.0001) %MON dynstat_sst_sd               =   1.0144433425468E+01
(PID.TID 0000.0001) %MON dynstat_sst_del2             =   8.2655795402978E-04
(PID.TID 0000.0001) %MON dynstat_sss_max              =   3.9182027614163E+01
(PID.TID 0000.0001) %MON dynstat_sss_min              =   1.1845292029505E+01
(PID.TID 0000.0001) %MON dynstat_sss_mean             =   3.4694629206438E+01
(PID.TID 0000.0001) %MON dynstat_sss_sd               =   1.1421224249246E+00
(PID.TID 0000.0001) %MON dynstat_sss_del2             =   8.9248345736655E-04
(PID.TID 0000.0001) %MON forcing_qnet_max             =   2.3825842285156E+03
(PID.TID 0000.0001) %MON forcing_qnet_min             =  -8.7272686740010E+02
(PID.TID 0000.0001) %MON forcing_qnet_mean            =  -3.1547036743324E+01
(PID.TID 0000.0001) %MON forcing_qnet_sd              =   2.1155154755593E+02
(PID.TID 0000.0001) %MON forcing_qnet_del2            =   3.5812067582810E-01
(PID.TID 0000.0001) %MON forcing_qsw_max              =   0.0000000000000E+00
(PID.TID 0000.0001) %MON forcing_qsw_min              =  -1.1025165165483E+02
(PID.TID 0000.0001) %MON forcing_qsw_mean             =  -2.3208922077774E+01
(PID.TID 0000.0001) %MON forcing_qsw_sd               =   3.1181864600960E+01
(PID.TID 0000.0001) %MON forcing_qsw_del2             =   2.0193826842978E-02
(PID.TID 0000.0001) %MON forcing_empmr_max            =   1.7738173482940E-03
(PID.TID 0000.0001) %MON forcing_empmr_min            =  -3.6603584885597E-02
(PID.TID 0000.0001) %MON forcing_empmr_mean           =  -5.6371330078708E-06
(PID.TID 0000.0001) %MON forcing_empmr_sd             =   2.0346513806105E-04
(PID.TID 0000.0001) %MON forcing_empmr_del2           =   1.7939895284068E-06
(PID.TID 0000.0001) %MON forcing_fu_max               =   6.5321445465088E-01
(PID.TID 0000.0001) %MON forcing_fu_min               =  -1.2149666262002E+00
(PID.TID 0000.0001) %MON forcing_fu_mean              =   2.7290993303694E-03
(PID.TID 0000.0001) %MON forcing_fu_sd                =   9.7145149445081E-02
(PID.TID 0000.0001) %MON forcing_fu_del2              =   1.4351050684903E-04
(PID.TID 0000.0001) %MON forcing_fv_max               =   1.4666649103165E+00
(PID.TID 0000.0001) %MON forcing_fv_min               =  -9.1142042140554E-01
(PID.TID 0000.0001) %MON forcing_fv_mean              =  -6.0948816049578E-03
(PID.TID 0000.0001) %MON forcing_fv_sd                =   1.1101855967966E-01
(PID.TID 0000.0001) %MON forcing_fv_del2              =   1.4961859722174E-04
(PID.TID 0000.0001) %MON trAdv_CFL_u_max              =   1.5760094595535E-02
(PID.TID 0000.0001) %MON trAdv_CFL_v_max              =   2.2635993244030E-02
(PID.TID 0000.0001) %MON trAdv_CFL_w_max              =   2.5218060589515E-02
(PID.TID 0000.0001) %MON advcfl_uvel_max              =   1.5893812345467E-02
(PID.TID 0000.0001) %MON advcfl_vvel_max              =   2.3401134417561E-02
(PID.TID 0000.0001) %MON advcfl_wvel_max              =   2.4993524299666E-02
(PID.TID 0000.0001) %MON advcfl_W_hf_max              =   2.5735658561466E-02
(PID.TID 0000.0001) %MON pe_b_mean                    =   5.7330433938624E-04
(PID.TID 0000.0001) %MON ke_max                       =   8.9952886789100E-01
(PID.TID 0000.0001) %MON ke_mean                      =   4.1489161347137E-04
(PID.TID 0000.0001) %MON ke_vol                       =   1.3349973530709E+18
(PID.TID 0000.0001) %MON vort_r_min                   =  -2.4984644624385E-05
(PID.TID 0000.0001) %MON vort_r_max                   =   3.7409511435533E-05
(PID.TID 0000.0001) %MON vort_a_mean                  =  -1.9727864647440E-05
(PID.TID 0000.0001) %MON vort_a_sd                    =   7.4543004757802E-05
(PID.TID 0000.0001) %MON vort_p_mean                  =  -2.1760539167209E-05
(PID.TID 0000.0001) %MON vort_p_sd                    =   9.7247087520338E-05
(PID.TID 0000.0001) %MON surfExpan_theta_mean         =  -8.6453919576435E-07
(PID.TID 0000.0001) %MON surfExpan_salt_mean          =  -3.6142547638181E-08
(PID.TID 0000.0001) // =======================================================
(PID.TID 0000.0001) // End MONITOR dynamic field statistics
(PID.TID 0000.0001) // =======================================================
(PID.TID 0000.0001) // =======================================================
(PID.TID 0000.0001) // Begin MONITOR SEAICE statistics
(PID.TID 0000.0001) // =======================================================
(PID.TID 0000.0001) %MON seaice_tsnumber              =                   200
(PID.TID 0000.0001) %MON seaice_time_sec              =   1.8000000000000E+05
(PID.TID 0000.0001) %MON seaice_uice_max              =   4.0000000000000E-01
(PID.TID 0000.0001) %MON seaice_uice_min              =  -4.0000000000000E-01
(PID.TID 0000.0001) %MON seaice_uice_mean             =  -8.3054598624025E-03
(PID.TID 0000.0001) %MON seaice_uice_sd               =   1.9802383574176E-01
(PID.TID 0000.0001) %MON seaice_uice_del2             =   2.2931571122150E-04
(PID.TID 0000.0001) %MON seaice_vice_max              =   4.0000000000000E-01
(PID.TID 0000.0001) %MON seaice_vice_min              =  -4.0000000000000E-01
(PID.TID 0000.0001) %MON seaice_vice_mean             =  -2.1960776359499E-02
(PID.TID 0000.0001) %MON seaice_vice_sd               =   2.1302038025672E-01
(PID.TID 0000.0001) %MON seaice_vice_del2             =   2.3932563818061E-04
(PID.TID 0000.0001) %MON seaice_area_max              =   1.0000000000000E+00
(PID.TID 0000.0001) %MON seaice_area_min              =   0.0000000000000E+00
(PID.TID 0000.0001) %MON seaice_area_mean             =   6.8864979577170E-02
(PID.TID 0000.0001) %MON seaice_area_sd               =   2.3506245034031E-01
(PID.TID 0000.0001) %MON seaice_area_del2             =   4.4392750696060E-04
(PID.TID 0000.0001) %MON seaice_heff_max              =   2.5195441391086E+01
(PID.TID 0000.0001) %MON seaice_heff_min              =   0.0000000000000E+00
(PID.TID 0000.0001) %MON seaice_heff_mean             =   2.1576706740262E-01
(PID.TID 0000.0001) %MON seaice_heff_sd               =   1.0700610392617E+00
(PID.TID 0000.0001) %MON seaice_heff_del2             =   3.8993869224891E-03
(PID.TID 0000.0001) %MON seaice_hsnow_max             =   8.3216468481405E+00
(PID.TID 0000.0001) %MON seaice_hsnow_min             =   0.0000000000000E+00
(PID.TID 0000.0001) %MON seaice_hsnow_mean            =   2.4461799303983E-02
(PID.TID 0000.0001) %MON seaice_hsnow_sd              =   1.5743536261420E-01
(PID.TID 0000.0001) %MON seaice_hsnow_del2            =   1.2511642005506E-03
(PID.TID 0000.0001) // =======================================================
(PID.TID 0000.0001) // End MONITOR SEAICE statistics
(PID.TID 0000.0001) // =======================================================
 Computing Diagnostic #     86  oceQnet      Counter:       4   Parms: SM      U1      
 Computing Diagnostic #     87  oceQsw       Counter:       4   Parms: SM      U1      
 Computing Diagnostic #     84  oceFWflx     Counter:       4   Parms: SM      U1      
 Computing Diagnostic #     85  oceSflux     Counter:       4   Parms: SM      U1      
 Computing Diagnostic #     80  oceTAUX      Counter:       4   Parms: UU      U1      
           Vector  Mate for  oceTAUX      Diagnostic #     81  oceTAUY  exists 
 Computing Diagnostic #     81  oceTAUY      Counter:       4   Parms: VV      U1      
           Vector  Mate for  oceTAUY      Diagnostic #     80  oceTAUX  exists 
 Computing Diagnostic #     26  THETA        Counter:       4   Parms: SMR     MR      
 Computing Diagnostic #     27  SALT         Counter:       4   Parms: SMR     MR      
 Computing Diagnostic #     30  UVEL         Counter:       4   Parms: UUR     MR      
           Vector  Mate for  UVEL         Diagnostic #     31  VVEL     exists 
 Computing Diagnostic #     31  VVEL         Counter:       4   Parms: VVR     MR      
           Vector  Mate for  VVEL         Diagnostic #     30  UVEL     exists 
 Computing Diagnostic #    214  SIarea       Counter:       4   Parms: SM      M1      
 Computing Diagnostic #    217  SIheff       Counter:       4   Parms: SM      M1      
 Computing Diagnostic #    219  SIhsnow      Counter:       4   Parms: SM      M1      
 Computing Diagnostic #     83  sIceLoad     Counter:       4   Parms: SM      U1      
 Computing Diagnostic #    223  SIuice       Counter:       4   Parms: UU      M1      
           Vector  Mate for  SIuice       Diagnostic #    224  SIvice   exists 
 Computing Diagnostic #    224  SIvice       Counter:       4   Parms: VV      M1      
           Vector  Mate for  SIvice       Diagnostic #    223  SIuice   exists 
 Computing Diagnostic #    225  SItaux       Counter:       4   Parms: UU      U1      
           Vector  Mate for  SItaux       Diagnostic #    226  SItauy   exists 
 Computing Diagnostic #    226  SItauy       Counter:       4   Parms: VV      U1      
           Vector  Mate for  SItauy       Diagnostic #    225  SItaux   exists 
 Computing Diagnostic #    285  SIareaN      Counter:       4   Parms: SM      MX      
 Computing Diagnostic #    284  SIheffN      Counter:       4   Parms: SM      MX      
 Computing Diagnostic #    286  SIhsnowN     Counter:       4   Parms: SM      MX      
 Compute Stats, Diag. #    214  SIarea    vol(   0 ): 3.580E+14  Parms: SM      M1      
 Compute Stats, Diag. #    217  SIheff    vol(   0 ): 3.580E+14  Parms: SM      M1      
 Compute Stats, Diag. #    219  SIhsnow   vol(   0 ): 3.580E+14  Parms: SM      M1      
 Compute Stats, Diag. #     83  sIceLoad  vol(   0 ): 3.580E+14  Parms: SM      U1      
 Compute Stats, Diag. #    223  SIuice    vol(   0 ): 3.513E+14  Parms: UU      M1      
 Compute Stats, Diag. #    224  SIvice    vol(   0 ): 3.508E+14  Parms: VV      M1      
 Compute Stats, Diag. #    225  SItaux    vol(   0 ): 3.513E+14  Parms: UU      U1      
 Compute Stats, Diag. #    226  SItauy    vol(   0 ): 3.508E+14  Parms: VV      U1      
 cg2d: Sum(rhs),rhsMax =   4.59455736238256E+01  2.95618821148703E-01
 Compute Stats, Diag. #    214  SIarea    vol(   0 ): 3.580E+14  Parms: SM      M1      
 Compute Stats, Diag. #    217  SIheff    vol(   0 ): 3.580E+14  Parms: SM      M1      
 Compute Stats, Diag. #    219  SIhsnow   vol(   0 ): 3.580E+14  Parms: SM      M1      
 Compute Stats, Diag. #     83  sIceLoad  vol(   0 ): 3.580E+14  Parms: SM      U1      
 Compute Stats, Diag. #    223  SIuice    vol(   0 ): 3.513E+14  Parms: UU      M1      
 Compute Stats, Diag. #    224  SIvice    vol(   0 ): 3.508E+14  Parms: VV      M1      
 Compute Stats, Diag. #    225  SItaux    vol(   0 ): 3.513E+14  Parms: UU      U1      
 Compute Stats, Diag. #    226  SItauy    vol(   0 ): 3.508E+14  Parms: VV      U1      
 cg2d: Sum(rhs),rhsMax =   4.58021261911873E+01  2.95519846303773E-01
 Compute Stats, Diag. #    214  SIarea    vol(   0 ): 3.580E+14  Parms: SM      M1      
 Compute Stats, Diag. #    217  SIheff    vol(   0 ): 3.580E+14  Parms: SM      M1      
 Compute Stats, Diag. #    219  SIhsnow   vol(   0 ): 3.580E+14  Parms: SM      M1      
 Compute Stats, Diag. #     83  sIceLoad  vol(   0 ): 3.580E+14  Parms: SM      U1      
 Compute Stats, Diag. #    223  SIuice    vol(   0 ): 3.513E+14  Parms: UU      M1      
 Compute Stats, Diag. #    224  SIvice    vol(   0 ): 3.508E+14  Parms: VV      M1      
 Compute Stats, Diag. #    225  SItaux    vol(   0 ): 3.513E+14  Parms: UU      U1      
 Compute Stats, Diag. #    226  SItauy    vol(   0 ): 3.508E+14  Parms: VV      U1      
 cg2d: Sum(rhs),rhsMax =   4.56560527487528E+01  2.95409943291068E-01
 Compute Stats, Diag. #    214  SIarea    vol(   0 ): 3.580E+14  Parms: SM      M1      
 Compute Stats, Diag. #    217  SIheff    vol(   0 ): 3.580E+14  Parms: SM      M1      
 Compute Stats, Diag. #    219  SIhsnow   vol(   0 ): 3.580E+14  Parms: SM      M1      
 Compute Stats, Diag. #     83  sIceLoad  vol(   0 ): 3.580E+14  Parms: SM      U1      
 Compute Stats, Diag. #    223  SIuice    vol(   0 ): 3.513E+14  Parms: UU      M1      
 Compute Stats, Diag. #    224  SIvice    vol(   0 ): 3.508E+14  Parms: VV      M1      
 Compute Stats, Diag. #    225  SItaux    vol(   0 ): 3.513E+14  Parms: UU      U1      
 Compute Stats, Diag. #    226  SItauy    vol(   0 ): 3.508E+14  Parms: VV      U1      
 cg2d: Sum(rhs),rhsMax =   4.55037239567418E+01  2.95290289242378E-01
 Computing Diagnostic #     86  oceQnet      Counter:       4   Parms: SM      U1      
 Computing Diagnostic #     87  oceQsw       Counter:       4   Parms: SM      U1      
 Computing Diagnostic #     84  oceFWflx     Counter:       4   Parms: SM      U1      
 Computing Diagnostic #     85  oceSflux     Counter:       4   Parms: SM      U1      
 Computing Diagnostic #     80  oceTAUX      Counter:       4   Parms: UU      U1      
           Vector  Mate for  oceTAUX      Diagnostic #     81  oceTAUY  exists 
 Computing Diagnostic #     81  oceTAUY      Counter:       4   Parms: VV      U1      
           Vector  Mate for  oceTAUY      Diagnostic #     80  oceTAUX  exists 
 Computing Diagnostic #     26  THETA        Counter:       4   Parms: SMR     MR      
 Computing Diagnostic #     27  SALT         Counter:       4   Parms: SMR     MR      
 Computing Diagnostic #     30  UVEL         Counter:       4   Parms: UUR     MR      
           Vector  Mate for  UVEL         Diagnostic #     31  VVEL     exists 
 Computing Diagnostic #     31  VVEL         Counter:       4   Parms: VVR     MR      
           Vector  Mate for  VVEL         Diagnostic #     30  UVEL     exists 
 Computing Diagnostic #    214  SIarea       Counter:       4   Parms: SM      M1      
 Computing Diagnostic #    217  SIheff       Counter:       4   Parms: SM      M1      
 Computing Diagnostic #    219  SIhsnow      Counter:       4   Parms: SM      M1      
 Computing Diagnostic #     83  sIceLoad     Counter:       4   Parms: SM      U1      
 Computing Diagnostic #    223  SIuice       Counter:       4   Parms: UU      M1      
           Vector  Mate for  SIuice       Diagnostic #    224  SIvice   exists 
 Computing Diagnostic #    224  SIvice       Counter:       4   Parms: VV      M1      
           Vector  Mate for  SIvice       Diagnostic #    223  SIuice   exists 
 Computing Diagnostic #    225  SItaux       Counter:       4   Parms: UU      U1      
           Vector  Mate for  SItaux       Diagnostic #    226  SItauy   exists 
 Computing Diagnostic #    226  SItauy       Counter:       4   Parms: VV      U1      
           Vector  Mate for  SItauy       Diagnostic #    225  SItaux   exists 
 Computing Diagnostic #    285  SIareaN      Counter:       4   Parms: SM      MX      
 Computing Diagnostic #    284  SIheffN      Counter:       4   Parms: SM      MX      
 Computing Diagnostic #    286  SIhsnowN     Counter:       4   Parms: SM      MX      
 Compute Stats, Diag. #    214  SIarea    vol(   0 ): 3.580E+14  Parms: SM      M1      
 Compute Stats, Diag. #    217  SIheff    vol(   0 ): 3.580E+14  Parms: SM      M1      
 Compute Stats, Diag. #    219  SIhsnow   vol(   0 ): 3.580E+14  Parms: SM      M1      
 Compute Stats, Diag. #     83  sIceLoad  vol(   0 ): 3.580E+14  Parms: SM      U1      
 Compute Stats, Diag. #    223  SIuice    vol(   0 ): 3.513E+14  Parms: UU      M1      
 Compute Stats, Diag. #    224  SIvice    vol(   0 ): 3.508E+14  Parms: VV      M1      
 Compute Stats, Diag. #    225  SItaux    vol(   0 ): 3.513E+14  Parms: UU      U1      
 Compute Stats, Diag. #    226  SItauy    vol(   0 ): 3.508E+14  Parms: VV      U1      
 cg2d: Sum(rhs),rhsMax =   4.53589443236592E+01  2.95162163827784E-01
 Compute Stats, Diag. #    214  SIarea    vol(   0 ): 3.580E+14  Parms: SM      M1      
 Compute Stats, Diag. #    217  SIheff    vol(   0 ): 3.580E+14  Parms: SM      M1      
 Compute Stats, Diag. #    219  SIhsnow   vol(   0 ): 3.580E+14  Parms: SM      M1      
 Compute Stats, Diag. #     83  sIceLoad  vol(   0 ): 3.580E+14  Parms: SM      U1      
 Compute Stats, Diag. #    223  SIuice    vol(   0 ): 3.513E+14  Parms: UU      M1      
 Compute Stats, Diag. #    224  SIvice    vol(   0 ): 3.508E+14  Parms: VV      M1      
 Compute Stats, Diag. #    225  SItaux    vol(   0 ): 3.513E+14  Parms: UU      U1      
 Compute Stats, Diag. #    226  SItauy    vol(   0 ): 3.508E+14  Parms: VV      U1      
 cg2d: Sum(rhs),rhsMax =   4.52159933795838E+01  2.95027444807381E-01
 Compute Stats, Diag. #    214  SIarea    vol(   0 ): 3.580E+14  Parms: SM      M1      
 Compute Stats, Diag. #    217  SIheff    vol(   0 ): 3.580E+14  Parms: SM      M1      
 Compute Stats, Diag. #    219  SIhsnow   vol(   0 ): 3.580E+14  Parms: SM      M1      
 Compute Stats, Diag. #     83  sIceLoad  vol(   0 ): 3.580E+14  Parms: SM      U1      
 Compute Stats, Diag. #    223  SIuice    vol(   0 ): 3.513E+14  Parms: UU      M1      
 Compute Stats, Diag. #    224  SIvice    vol(   0 ): 3.508E+14  Parms: VV      M1      
 Compute Stats, Diag. #    225  SItaux    vol(   0 ): 3.513E+14  Parms: UU      U1      
 Compute Stats, Diag. #    226  SItauy    vol(   0 ): 3.508E+14  Parms: VV      U1      
 cg2d: Sum(rhs),rhsMax =   4.50693469667335E+01  2.94887288969201E-01
 Compute Stats, Diag. #    214  SIarea    vol(   0 ): 3.580E+14  Parms: SM      M1      
 Compute Stats, Diag. #    217  SIheff    vol(   0 ): 3.580E+14  Parms: SM      M1      
 Compute Stats, Diag. #    219  SIhsnow   vol(   0 ): 3.580E+14  Parms: SM      M1      
 Compute Stats, Diag. #     83  sIceLoad  vol(   0 ): 3.580E+14  Parms: SM      U1      
 Compute Stats, Diag. #    223  SIuice    vol(   0 ): 3.513E+14  Parms: UU      M1      
 Compute Stats, Diag. #    224  SIvice    vol(   0 ): 3.508E+14  Parms: VV      M1      
 Compute Stats, Diag. #    225  SItaux    vol(   0 ): 3.513E+14  Parms: UU      U1      
 Compute Stats, Diag. #    226  SItauy    vol(   0 ): 3.508E+14  Parms: VV      U1      
 cg2d: Sum(rhs),rhsMax =   4.49238961893665E+01  2.94743184431804E-01
(PID.TID 0000.0001)      cg2d_init_res =   1.47182459285181E-01
(PID.TID 0000.0001)      cg2d_iters(min,last) =      -1      27
(PID.TID 0000.0001)      cg2d_last_res =   2.10331609120917E-05
(PID.TID 0000.0001) // =======================================================
(PID.TID 0000.0001) // Begin MONITOR dynamic field statistics
(PID.TID 0000.0001) // =======================================================
(PID.TID 0000.0001) %MON time_tsnumber                =                   208
(PID.TID 0000.0001) %MON time_secondsf                =   1.8720000000000E+05
(PID.TID 0000.0001) %MON dynstat_eta_max              =   1.0756724631523E+00
(PID.TID 0000.0001) %MON dynstat_eta_min              =  -2.4811526010073E+00
(PID.TID 0000.0001) %MON dynstat_eta_mean             =  -1.4210863138744E-03
(PID.TID 0000.0001) %MON dynstat_eta_sd               =   6.5864755700863E-01
(PID.TID 0000.0001) %MON dynstat_eta_del2             =   6.6424926179841E-05
(PID.TID 0000.0001) %MON dynstat_uvel_max             =   8.4620390061272E-01
(PID.TID 0000.0001) %MON dynstat_uvel_min             =  -9.5709270016835E-01
(PID.TID 0000.0001) %MON dynstat_uvel_mean            =   9.9455311903255E-04
(PID.TID 0000.0001) %MON dynstat_uvel_sd              =   2.0336801439089E-02
(PID.TID 0000.0001) %MON dynstat_uvel_del2            =   9.2499890003571E-06
(PID.TID 0000.0001) %MON dynstat_vvel_max             =   1.2994267458478E+00
(PID.TID 0000.0001) %MON dynstat_vvel_min             =  -8.4102756821525E-01
(PID.TID 0000.0001) %MON dynstat_vvel_mean            =   1.1156244915434E-03
(PID.TID 0000.0001) %MON dynstat_vvel_sd              =   2.0995535740481E-02
(PID.TID 0000.0001) %MON dynstat_vvel_del2            =   9.5016478411724E-06
(PID.TID 0000.0001) %MON dynstat_wvel_max             =   1.4647854202581E-03
(PID.TID 0000.0001) %MON dynstat_wvel_min             =  -9.2597584475073E-04
(PID.TID 0000.0001) %MON dynstat_wvel_mean            =  -1.5931487141802E-09
(PID.TID 0000.0001) %MON dynstat_wvel_sd              =   2.3847972203110E-05
(PID.TID 0000.0001) %MON dynstat_wvel_del2            =   2.4558002166616E-08
(PID.TID 0000.0001) %MON dynstat_theta_max            =   3.2432019600678E+01
(PID.TID 0000.0001) %MON dynstat_theta_min            =  -2.0415506881004E+00
(PID.TID 0000.0001) %MON dynstat_theta_mean           =   3.5904745561408E+00
(PID.TID 0000.0001) %MON dynstat_theta_sd             =   4.4362379166041E+00
(PID.TID 0000.0001) %MON dynstat_theta_del2           =   9.9350733855685E-05
(PID.TID 0000.0001) %MON dynstat_salt_max             =   4.0711545612748E+01
(PID.TID 0000.0001) %MON dynstat_salt_min             =   1.1990426382560E+01
(PID.TID 0000.0001) %MON dynstat_salt_mean            =   3.4725586742698E+01
(PID.TID 0000.0001) %MON dynstat_salt_sd              =   3.7701968985186E-01
(PID.TID 0000.0001) %MON dynstat_salt_del2            =   3.1737316854604E-05
(PID.TID 0000.0001) %MON dynstat_sst_max              =   3.2432019600678E+01
(PID.TID 0000.0001) %MON dynstat_sst_min              =  -1.8302780335091E+00
(PID.TID 0000.0001) %MON dynstat_sst_mean             =   1.8492177301175E+01
(PID.TID 0000.0001) %MON dynstat_sst_sd               =   1.0148326166507E+01
(PID.TID 0000.0001) %MON dynstat_sst_del2             =   8.2606240003589E-04
(PID.TID 0000.0001) %MON dynstat_sss_max              =   3.9176211978693E+01
(PID.TID 0000.0001) %MON dynstat_sss_min              =   1.1990426382560E+01
(PID.TID 0000.0001) %MON dynstat_sss_mean             =   3.4694949905930E+01
(PID.TID 0000.0001) %MON dynstat_sss_sd               =   1.1426679042420E+00
(PID.TID 0000.0001) %MON dynstat_sss_del2             =   8.7889213974585E-04
(PID.TID 0000.0001) %MON forcing_qnet_max             =   1.4570283203125E+03
(PID.TID 0000.0001) %MON forcing_qnet_min             =  -1.1652731933594E+03
(PID.TID 0000.0001) %MON forcing_qnet_mean            =  -2.2764946077563E+01
(PID.TID 0000.0001) %MON forcing_qnet_sd              =   2.0333847654682E+02
(PID.TID 0000.0001) %MON forcing_qnet_del2            =   3.4438690895123E-01
(PID.TID 0000.0001) %MON forcing_qsw_max              =   0.0000000000000E+00
(PID.TID 0000.0001) %MON forcing_qsw_min              =  -1.1030459767156E+02
(PID.TID 0000.0001) %MON forcing_qsw_mean             =  -2.1570340099301E+01
(PID.TID 0000.0001) %MON forcing_qsw_sd               =   3.0265920312648E+01
(PID.TID 0000.0001) %MON forcing_qsw_del2             =   2.1835617583958E-02
(PID.TID 0000.0001) %MON forcing_empmr_max            =   1.1513943318278E-03
(PID.TID 0000.0001) %MON forcing_empmr_min            =  -2.9682982712984E-02
(PID.TID 0000.0001) %MON forcing_empmr_mean           =  -5.2605597036666E-06
(PID.TID 0000.0001) %MON forcing_empmr_sd             =   1.7709553590655E-04
(PID.TID 0000.0001) %MON forcing_empmr_del2           =   1.5112135973291E-06
(PID.TID 0000.0001) %MON forcing_fu_max               =   6.5491157770157E-01
(PID.TID 0000.0001) %MON forcing_fu_min               =  -1.0676661783580E+00
(PID.TID 0000.0001) %MON forcing_fu_mean              =   2.2548158865120E-03
(PID.TID 0000.0001) %MON forcing_fu_sd                =   9.6155945444779E-02
(PID.TID 0000.0001) %MON forcing_fu_del2              =   1.3806212870329E-04
(PID.TID 0000.0001) %MON forcing_fv_max               =   1.5021686553955E+00
(PID.TID 0000.0001) %MON forcing_fv_min               =  -8.5907082133138E-01
(PID.TID 0000.0001) %MON forcing_fv_mean              =  -5.6995749237457E-03
(PID.TID 0000.0001) %MON forcing_fv_sd                =   1.1177741164035E-01
(PID.TID 0000.0001) %MON forcing_fv_del2              =   1.4928733221994E-04
(PID.TID 0000.0001) %MON trAdv_CFL_u_max              =   1.5701722116666E-02
(PID.TID 0000.0001) %MON trAdv_CFL_v_max              =   2.2369353879212E-02
(PID.TID 0000.0001) %MON trAdv_CFL_w_max              =   2.4973037276513E-02
(PID.TID 0000.0001) %MON advcfl_uvel_max              =   1.5835017811107E-02
(PID.TID 0000.0001) %MON advcfl_vvel_max              =   2.3065999641174E-02
(PID.TID 0000.0001) %MON advcfl_wvel_max              =   2.4803055309937E-02
(PID.TID 0000.0001) %MON advcfl_W_hf_max              =   2.5908846596535E-02
(PID.TID 0000.0001) %MON pe_b_mean                    =   5.7064581492604E-04
(PID.TID 0000.0001) %MON ke_max                       =   8.6781274375661E-01
(PID.TID 0000.0001) %MON ke_mean                      =   4.1306205790519E-04
(PID.TID 0000.0001) %MON ke_vol                       =   1.3349973665234E+18
(PID.TID 0000.0001) %MON vort_r_min                   =  -2.4682379284585E-05
(PID.TID 0000.0001) %MON vort_r_max                   =   3.6874860405115E-05
(PID.TID 0000.0001) %MON vort_a_mean                  =  -1.9727864647440E-05
(PID.TID 0000.0001) %MON vort_a_sd                    =   7.4543012372687E-05
(PID.TID 0000.0001) %MON vort_p_mean                  =  -2.1760538694727E-05
(PID.TID 0000.0001) %MON vort_p_sd                    =   9.7247165301523E-05
(PID.TID 0000.0001) %MON surfExpan_theta_mean         =  -8.5569619422161E-07
(PID.TID 0000.0001) %MON surfExpan_salt_mean          =  -5.0350618448641E-08
(PID.TID 0000.0001) // =======================================================
(PID.TID 0000.0001) // End MONITOR dynamic field statistics
(PID.TID 0000.0001) // =======================================================
(PID.TID 0000.0001) // =======================================================
(PID.TID 0000.0001) // Begin MONITOR SEAICE statistics
(PID.TID 0000.0001) // =======================================================
(PID.TID 0000.0001) %MON seaice_tsnumber              =                   208
(PID.TID 0000.0001) %MON seaice_time_sec              =   1.8720000000000E+05
(PID.TID 0000.0001) %MON seaice_uice_max              =   4.0000000000000E-01
(PID.TID 0000.0001) %MON seaice_uice_min              =  -4.0000000000000E-01
(PID.TID 0000.0001) %MON seaice_uice_mean             =  -8.3054598624025E-03
(PID.TID 0000.0001) %MON seaice_uice_sd               =   1.9802383574176E-01
(PID.TID 0000.0001) %MON seaice_uice_del2             =   2.2931571122150E-04
(PID.TID 0000.0001) %MON seaice_vice_max              =   4.0000000000000E-01
(PID.TID 0000.0001) %MON seaice_vice_min              =  -4.0000000000000E-01
(PID.TID 0000.0001) %MON seaice_vice_mean             =  -2.1960776359499E-02
(PID.TID 0000.0001) %MON seaice_vice_sd               =   2.1302038025672E-01
(PID.TID 0000.0001) %MON seaice_vice_del2             =   2.3932563818061E-04
(PID.TID 0000.0001) %MON seaice_area_max              =   1.0000000000000E+00
(PID.TID 0000.0001) %MON seaice_area_min              =   0.0000000000000E+00
(PID.TID 0000.0001) %MON seaice_area_mean             =   6.8799062194298E-02
(PID.TID 0000.0001) %MON seaice_area_sd               =   2.3496316798625E-01
(PID.TID 0000.0001) %MON seaice_area_del2             =   4.4279302937639E-04
(PID.TID 0000.0001) %MON seaice_heff_max              =   2.5191782304086E+01
(PID.TID 0000.0001) %MON seaice_heff_min              =   0.0000000000000E+00
(PID.TID 0000.0001) %MON seaice_heff_mean             =   2.1570464566027E-01
(PID.TID 0000.0001) %MON seaice_heff_sd               =   1.0699879880418E+00
(PID.TID 0000.0001) %MON seaice_heff_del2             =   3.8985336468171E-03
(PID.TID 0000.0001) %MON seaice_hsnow_max             =   8.3204403182026E+00
(PID.TID 0000.0001) %MON seaice_hsnow_min             =   0.0000000000000E+00
(PID.TID 0000.0001) %MON seaice_hsnow_mean            =   2.4446426397469E-02
(PID.TID 0000.0001) %MON seaice_hsnow_sd              =   1.5740582579444E-01
(PID.TID 0000.0001) %MON seaice_hsnow_del2            =   1.2509882012893E-03
(PID.TID 0000.0001) // =======================================================
(PID.TID 0000.0001) // End MONITOR SEAICE statistics
(PID.TID 0000.0001) // =======================================================
 Computing Diagnostic #     86  oceQnet      Counter:       4   Parms: SM      U1      
 Computing Diagnostic #     87  oceQsw       Counter:       4   Parms: SM      U1      
 Computing Diagnostic #     84  oceFWflx     Counter:       4   Parms: SM      U1      
 Computing Diagnostic #     85  oceSflux     Counter:       4   Parms: SM      U1      
 Computing Diagnostic #     80  oceTAUX      Counter:       4   Parms: UU      U1      
           Vector  Mate for  oceTAUX      Diagnostic #     81  oceTAUY  exists 
 Computing Diagnostic #     81  oceTAUY      Counter:       4   Parms: VV      U1      
           Vector  Mate for  oceTAUY      Diagnostic #     80  oceTAUX  exists 
 Computing Diagnostic #     26  THETA        Counter:       4   Parms: SMR     MR      
 Computing Diagnostic #     27  SALT         Counter:       4   Parms: SMR     MR      
 Computing Diagnostic #     30  UVEL         Counter:       4   Parms: UUR     MR      
           Vector  Mate for  UVEL         Diagnostic #     31  VVEL     exists 
 Computing Diagnostic #     31  VVEL         Counter:       4   Parms: VVR     MR      
           Vector  Mate for  VVEL         Diagnostic #     30  UVEL     exists 
 Computing Diagnostic #    214  SIarea       Counter:       4   Parms: SM      M1      
 Computing Diagnostic #    217  SIheff       Counter:       4   Parms: SM      M1      
 Computing Diagnostic #    219  SIhsnow      Counter:       4   Parms: SM      M1      
 Computing Diagnostic #     83  sIceLoad     Counter:       4   Parms: SM      U1      
 Computing Diagnostic #    223  SIuice       Counter:       4   Parms: UU      M1      
           Vector  Mate for  SIuice       Diagnostic #    224  SIvice   exists 
 Computing Diagnostic #    224  SIvice       Counter:       4   Parms: VV      M1      
           Vector  Mate for  SIvice       Diagnostic #    223  SIuice   exists 
 Computing Diagnostic #    225  SItaux       Counter:       4   Parms: UU      U1      
           Vector  Mate for  SItaux       Diagnostic #    226  SItauy   exists 
 Computing Diagnostic #    226  SItauy       Counter:       4   Parms: VV      U1      
           Vector  Mate for  SItauy       Diagnostic #    225  SItaux   exists 
 Computing Diagnostic #    285  SIareaN      Counter:       4   Parms: SM      MX      
 Computing Diagnostic #    284  SIheffN      Counter:       4   Parms: SM      MX      
 Computing Diagnostic #    286  SIhsnowN     Counter:       4   Parms: SM      MX      
 Compute Stats, Diag. #    214  SIarea    vol(   0 ): 3.580E+14  Parms: SM      M1      
 Compute Stats, Diag. #    217  SIheff    vol(   0 ): 3.580E+14  Parms: SM      M1      
 Compute Stats, Diag. #    219  SIhsnow   vol(   0 ): 3.580E+14  Parms: SM      M1      
 Compute Stats, Diag. #     83  sIceLoad  vol(   0 ): 3.580E+14  Parms: SM      U1      
 Compute Stats, Diag. #    223  SIuice    vol(   0 ): 3.513E+14  Parms: UU      M1      
 Compute Stats, Diag. #    224  SIvice    vol(   0 ): 3.508E+14  Parms: VV      M1      
 Compute Stats, Diag. #    225  SItaux    vol(   0 ): 3.513E+14  Parms: UU      U1      
 Compute Stats, Diag. #    226  SItauy    vol(   0 ): 3.508E+14  Parms: VV      U1      
 cg2d: Sum(rhs),rhsMax =   4.47748042472000E+01  2.94596467077365E-01
 Compute Stats, Diag. #    214  SIarea    vol(   0 ): 3.580E+14  Parms: SM      M1      
 Compute Stats, Diag. #    217  SIheff    vol(   0 ): 3.580E+14  Parms: SM      M1      
 Compute Stats, Diag. #    219  SIhsnow   vol(   0 ): 3.580E+14  Parms: SM      M1      
 Compute Stats, Diag. #     83  sIceLoad  vol(   0 ): 3.580E+14  Parms: SM      U1      
 Compute Stats, Diag. #    223  SIuice    vol(   0 ): 3.513E+14  Parms: UU      M1      
 Compute Stats, Diag. #    224  SIvice    vol(   0 ): 3.508E+14  Parms: VV      M1      
 Compute Stats, Diag. #    225  SItaux    vol(   0 ): 3.513E+14  Parms: UU      U1      
 Compute Stats, Diag. #    226  SItauy    vol(   0 ): 3.508E+14  Parms: VV      U1      
 cg2d: Sum(rhs),rhsMax =   4.46312275831065E+01  2.94448349975170E-01
 Compute Stats, Diag. #    214  SIarea    vol(   0 ): 3.580E+14  Parms: SM      M1      
 Compute Stats, Diag. #    217  SIheff    vol(   0 ): 3.580E+14  Parms: SM      M1      
 Compute Stats, Diag. #    219  SIhsnow   vol(   0 ): 3.580E+14  Parms: SM      M1      
 Compute Stats, Diag. #     83  sIceLoad  vol(   0 ): 3.580E+14  Parms: SM      U1      
 Compute Stats, Diag. #    223  SIuice    vol(   0 ): 3.513E+14  Parms: UU      M1      
 Compute Stats, Diag. #    224  SIvice    vol(   0 ): 3.508E+14  Parms: VV      M1      
 Compute Stats, Diag. #    225  SItaux    vol(   0 ): 3.513E+14  Parms: UU      U1      
 Compute Stats, Diag. #    226  SItauy    vol(   0 ): 3.508E+14  Parms: VV      U1      
 cg2d: Sum(rhs),rhsMax =   4.44940115925236E+01  2.94300263761088E-01
 Compute Stats, Diag. #    214  SIarea    vol(   0 ): 3.580E+14  Parms: SM      M1      
 Compute Stats, Diag. #    217  SIheff    vol(   0 ): 3.580E+14  Parms: SM      M1      
 Compute Stats, Diag. #    219  SIhsnow   vol(   0 ): 3.580E+14  Parms: SM      M1      
 Compute Stats, Diag. #     83  sIceLoad  vol(   0 ): 3.580E+14  Parms: SM      U1      
 Compute Stats, Diag. #    223  SIuice    vol(   0 ): 3.513E+14  Parms: UU      M1      
 Compute Stats, Diag. #    224  SIvice    vol(   0 ): 3.508E+14  Parms: VV      M1      
 Compute Stats, Diag. #    225  SItaux    vol(   0 ): 3.513E+14  Parms: UU      U1      
 Compute Stats, Diag. #    226  SItauy    vol(   0 ): 3.508E+14  Parms: VV      U1      
 cg2d: Sum(rhs),rhsMax =   4.43550643286852E+01  2.94153085105671E-01
 Computing Diagnostic #     86  oceQnet      Counter:       4   Parms: SM      U1      
 Computing Diagnostic #     87  oceQsw       Counter:       4   Parms: SM      U1      
 Computing Diagnostic #     84  oceFWflx     Counter:       4   Parms: SM      U1      
 Computing Diagnostic #     85  oceSflux     Counter:       4   Parms: SM      U1      
 Computing Diagnostic #     80  oceTAUX      Counter:       4   Parms: UU      U1      
           Vector  Mate for  oceTAUX      Diagnostic #     81  oceTAUY  exists 
 Computing Diagnostic #     81  oceTAUY      Counter:       4   Parms: VV      U1      
           Vector  Mate for  oceTAUY      Diagnostic #     80  oceTAUX  exists 
 Computing Diagnostic #     26  THETA        Counter:       4   Parms: SMR     MR      
 Computing Diagnostic #     27  SALT         Counter:       4   Parms: SMR     MR      
 Computing Diagnostic #     30  UVEL         Counter:       4   Parms: UUR     MR      
           Vector  Mate for  UVEL         Diagnostic #     31  VVEL     exists 
 Computing Diagnostic #     31  VVEL         Counter:       4   Parms: VVR     MR      
           Vector  Mate for  VVEL         Diagnostic #     30  UVEL     exists 
 Computing Diagnostic #    214  SIarea       Counter:       4   Parms: SM      M1      
 Computing Diagnostic #    217  SIheff       Counter:       4   Parms: SM      M1      
 Computing Diagnostic #    219  SIhsnow      Counter:       4   Parms: SM      M1      
 Computing Diagnostic #     83  sIceLoad     Counter:       4   Parms: SM      U1      
 Computing Diagnostic #    223  SIuice       Counter:       4   Parms: UU      M1      
           Vector  Mate for  SIuice       Diagnostic #    224  SIvice   exists 
 Computing Diagnostic #    224  SIvice       Counter:       4   Parms: VV      M1      
           Vector  Mate for  SIvice       Diagnostic #    223  SIuice   exists 
 Computing Diagnostic #    225  SItaux       Counter:       4   Parms: UU      U1      
           Vector  Mate for  SItaux       Diagnostic #    226  SItauy   exists 
 Computing Diagnostic #    226  SItauy       Counter:       4   Parms: VV      U1      
           Vector  Mate for  SItauy       Diagnostic #    225  SItaux   exists 
 Computing Diagnostic #    285  SIareaN      Counter:       4   Parms: SM      MX      
 Computing Diagnostic #    284  SIheffN      Counter:       4   Parms: SM      MX      
 Computing Diagnostic #    286  SIhsnowN     Counter:       4   Parms: SM      MX      
 Compute Stats, Diag. #    214  SIarea    vol(   0 ): 3.580E+14  Parms: SM      M1      
 Compute Stats, Diag. #    217  SIheff    vol(   0 ): 3.580E+14  Parms: SM      M1      
 Compute Stats, Diag. #    219  SIhsnow   vol(   0 ): 3.580E+14  Parms: SM      M1      
 Compute Stats, Diag. #     83  sIceLoad  vol(   0 ): 3.580E+14  Parms: SM      U1      
 Compute Stats, Diag. #    223  SIuice    vol(   0 ): 3.513E+14  Parms: UU      M1      
 Compute Stats, Diag. #    224  SIvice    vol(   0 ): 3.508E+14  Parms: VV      M1      
 Compute Stats, Diag. #    225  SItaux    vol(   0 ): 3.513E+14  Parms: UU      U1      
 Compute Stats, Diag. #    226  SItauy    vol(   0 ): 3.508E+14  Parms: VV      U1      
 cg2d: Sum(rhs),rhsMax =   4.42190949562746E+01  2.94008167938311E-01
 Compute Stats, Diag. #    214  SIarea    vol(   0 ): 3.580E+14  Parms: SM      M1      
 Compute Stats, Diag. #    217  SIheff    vol(   0 ): 3.580E+14  Parms: SM      M1      
 Compute Stats, Diag. #    219  SIhsnow   vol(   0 ): 3.580E+14  Parms: SM      M1      
 Compute Stats, Diag. #     83  sIceLoad  vol(   0 ): 3.580E+14  Parms: SM      U1      
 Compute Stats, Diag. #    223  SIuice    vol(   0 ): 3.513E+14  Parms: UU      M1      
 Compute Stats, Diag. #    224  SIvice    vol(   0 ): 3.508E+14  Parms: VV      M1      
 Compute Stats, Diag. #    225  SItaux    vol(   0 ): 3.513E+14  Parms: UU      U1      
 Compute Stats, Diag. #    226  SItauy    vol(   0 ): 3.508E+14  Parms: VV      U1      
 cg2d: Sum(rhs),rhsMax =   4.40853535777927E+01  2.93866307592923E-01
 Compute Stats, Diag. #    214  SIarea    vol(   0 ): 3.580E+14  Parms: SM      M1      
 Compute Stats, Diag. #    217  SIheff    vol(   0 ): 3.580E+14  Parms: SM      M1      
 Compute Stats, Diag. #    219  SIhsnow   vol(   0 ): 3.580E+14  Parms: SM      M1      
 Compute Stats, Diag. #     83  sIceLoad  vol(   0 ): 3.580E+14  Parms: SM      U1      
 Compute Stats, Diag. #    223  SIuice    vol(   0 ): 3.513E+14  Parms: UU      M1      
 Compute Stats, Diag. #    224  SIvice    vol(   0 ): 3.508E+14  Parms: VV      M1      
 Compute Stats, Diag. #    225  SItaux    vol(   0 ): 3.513E+14  Parms: UU      U1      
 Compute Stats, Diag. #    226  SItauy    vol(   0 ): 3.508E+14  Parms: VV      U1      
 cg2d: Sum(rhs),rhsMax =   4.39479990983641E+01  2.93728246198147E-01
 Compute Stats, Diag. #    214  SIarea    vol(   0 ): 3.580E+14  Parms: SM      M1      
 Compute Stats, Diag. #    217  SIheff    vol(   0 ): 3.580E+14  Parms: SM      M1      
 Compute Stats, Diag. #    219  SIhsnow   vol(   0 ): 3.580E+14  Parms: SM      M1      
 Compute Stats, Diag. #     83  sIceLoad  vol(   0 ): 3.580E+14  Parms: SM      U1      
 Compute Stats, Diag. #    223  SIuice    vol(   0 ): 3.513E+14  Parms: UU      M1      
 Compute Stats, Diag. #    224  SIvice    vol(   0 ): 3.508E+14  Parms: VV      M1      
 Compute Stats, Diag. #    225  SItaux    vol(   0 ): 3.513E+14  Parms: UU      U1      
 Compute Stats, Diag. #    226  SItauy    vol(   0 ): 3.508E+14  Parms: VV      U1      
 cg2d: Sum(rhs),rhsMax =   4.38113281789175E+01  2.93594551888834E-01
(PID.TID 0000.0001)      cg2d_init_res =   1.43235322556360E-01
(PID.TID 0000.0001)      cg2d_iters(min,last) =      -1      28
(PID.TID 0000.0001)      cg2d_last_res =   2.81833629988313E-05
(PID.TID 0000.0001) // =======================================================
(PID.TID 0000.0001) // Begin MONITOR dynamic field statistics
(PID.TID 0000.0001) // =======================================================
(PID.TID 0000.0001) %MON time_tsnumber                =                   216
(PID.TID 0000.0001) %MON time_secondsf                =   1.9440000000000E+05
(PID.TID 0000.0001) %MON dynstat_eta_max              =   1.0729017589678E+00
(PID.TID 0000.0001) %MON dynstat_eta_min              =  -2.4241285626611E+00
(PID.TID 0000.0001) %MON dynstat_eta_mean             =  -1.3858922343972E-03
(PID.TID 0000.0001) %MON dynstat_eta_sd               =   6.5740430291610E-01
(PID.TID 0000.0001) %MON dynstat_eta_del2             =   6.6080868084087E-05
(PID.TID 0000.0001) %MON dynstat_uvel_max             =   8.5127655269652E-01
(PID.TID 0000.0001) %MON dynstat_uvel_min             =  -9.5310361180780E-01
(PID.TID 0000.0001) %MON dynstat_uvel_mean            =   1.0477419366187E-03
(PID.TID 0000.0001) %MON dynstat_uvel_sd              =   2.0316472445692E-02
(PID.TID 0000.0001) %MON dynstat_uvel_del2            =   9.1249696838226E-06
(PID.TID 0000.0001) %MON dynstat_vvel_max             =   1.2802669624293E+00
(PID.TID 0000.0001) %MON dynstat_vvel_min             =  -8.4238075040550E-01
(PID.TID 0000.0001) %MON dynstat_vvel_mean            =   1.1482474392092E-03
(PID.TID 0000.0001) %MON dynstat_vvel_sd              =   2.0937163662763E-02
(PID.TID 0000.0001) %MON dynstat_vvel_del2            =   9.3733636098717E-06
(PID.TID 0000.0001) %MON dynstat_wvel_max             =   1.2901163930262E-03
(PID.TID 0000.0001) %MON dynstat_wvel_min             =  -9.0813875031061E-04
(PID.TID 0000.0001) %MON dynstat_wvel_mean            =   8.8821731780389E-09
(PID.TID 0000.0001) %MON dynstat_wvel_sd              =   2.3470440107024E-05
(PID.TID 0000.0001) %MON dynstat_wvel_del2            =   2.3727389359904E-08
(PID.TID 0000.0001) %MON dynstat_theta_max            =   3.2445448998457E+01
(PID.TID 0000.0001) %MON dynstat_theta_min            =  -2.0415245919421E+00
(PID.TID 0000.0001) %MON dynstat_theta_mean           =   3.5904796944511E+00
(PID.TID 0000.0001) %MON dynstat_theta_sd             =   4.4362797122149E+00
(PID.TID 0000.0001) %MON dynstat_theta_del2           =   9.9125262221900E-05
(PID.TID 0000.0001) %MON dynstat_salt_max             =   4.0711546295579E+01
(PID.TID 0000.0001) %MON dynstat_salt_min             =   1.2147218354888E+01
(PID.TID 0000.0001) %MON dynstat_salt_mean            =   3.4725586084211E+01
(PID.TID 0000.0001) %MON dynstat_salt_sd              =   3.7701769455675E-01
(PID.TID 0000.0001) %MON dynstat_salt_del2            =   3.1491578640528E-05
(PID.TID 0000.0001) %MON dynstat_sst_max              =   3.2445448998457E+01
(PID.TID 0000.0001) %MON dynstat_sst_min              =  -1.8280317798384E+00
(PID.TID 0000.0001) %MON dynstat_sst_mean             =   1.8492940103397E+01
(PID.TID 0000.0001) %MON dynstat_sst_sd               =   1.0151183606997E+01
(PID.TID 0000.0001) %MON dynstat_sst_del2             =   8.2580983776001E-04
(PID.TID 0000.0001) %MON dynstat_sss_max              =   3.9170951740466E+01
(PID.TID 0000.0001) %MON dynstat_sss_min              =   1.2147218354888E+01
(PID.TID 0000.0001) %MON dynstat_sss_mean             =   3.4695250345200E+01
(PID.TID 0000.0001) %MON dynstat_sss_sd               =   1.1432281783308E+00
(PID.TID 0000.0001) %MON dynstat_sss_del2             =   8.6775177756175E-04
(PID.TID 0000.0001) %MON forcing_qnet_max             =   9.0701782226562E+02
(PID.TID 0000.0001) %MON forcing_qnet_min             =  -9.0775604248047E+02
(PID.TID 0000.0001) %MON forcing_qnet_mean            =  -2.5462453085965E+00
(PID.TID 0000.0001) %MON forcing_qnet_sd              =   1.8777751471047E+02
(PID.TID 0000.0001) %MON forcing_qnet_del2            =   3.5745365361508E-01
(PID.TID 0000.0001) %MON forcing_qsw_max              =   0.0000000000000E+00
(PID.TID 0000.0001) %MON forcing_qsw_min              =  -1.0878902397661E+02
(PID.TID 0000.0001) %MON forcing_qsw_mean             =  -1.8921811117030E+01
(PID.TID 0000.0001) %MON forcing_qsw_sd               =   2.7838298277519E+01
(PID.TID 0000.0001) %MON forcing_qsw_del2             =   2.2470676857526E-02
(PID.TID 0000.0001) %MON forcing_empmr_max            =   1.0668945033103E-03
(PID.TID 0000.0001) %MON forcing_empmr_min            =  -2.8654092922807E-02
(PID.TID 0000.0001) %MON forcing_empmr_mean           =  -4.9430160810024E-06
(PID.TID 0000.0001) %MON forcing_empmr_sd             =   1.7200371728309E-04
(PID.TID 0000.0001) %MON forcing_empmr_del2           =   1.5874806660220E-06
(PID.TID 0000.0001) %MON forcing_fu_max               =   6.3269779086113E-01
(PID.TID 0000.0001) %MON forcing_fu_min               =  -9.2240686571233E-01
(PID.TID 0000.0001) %MON forcing_fu_mean              =   2.2383787597389E-03
(PID.TID 0000.0001) %MON forcing_fu_sd                =   9.4903552420857E-02
(PID.TID 0000.0001) %MON forcing_fu_del2              =   1.3265552096500E-04
(PID.TID 0000.0001) %MON forcing_fv_max               =   1.4078693389893E+00
(PID.TID 0000.0001) %MON forcing_fv_min               =  -8.1028387884398E-01
(PID.TID 0000.0001) %MON forcing_fv_mean              =  -6.0946632938664E-03
(PID.TID 0000.0001) %MON forcing_fv_sd                =   1.1194688047834E-01
(PID.TID 0000.0001) %MON forcing_fv_del2              =   1.4731409508360E-04
(PID.TID 0000.0001) %MON trAdv_CFL_u_max              =   1.5636472344973E-02
(PID.TID 0000.0001) %MON trAdv_CFL_v_max              =   2.2090811351783E-02
(PID.TID 0000.0001) %MON trAdv_CFL_w_max              =   2.4728142340241E-02
(PID.TID 0000.0001) %MON advcfl_uvel_max              =   1.5769018681421E-02
(PID.TID 0000.0001) %MON advcfl_vvel_max              =   2.2725896161799E-02
(PID.TID 0000.0001) %MON advcfl_wvel_max              =   2.4505007495589E-02
(PID.TID 0000.0001) %MON advcfl_W_hf_max              =   2.5013180420579E-02
(PID.TID 0000.0001) %MON pe_b_mean                    =   5.6849343636769E-04
(PID.TID 0000.0001) %MON ke_max                       =   8.3693990928537E-01
(PID.TID 0000.0001) %MON ke_mean                      =   4.1157120849956E-04
(PID.TID 0000.0001) %MON ke_vol                       =   1.3349973792228E+18
(PID.TID 0000.0001) %MON vort_r_min                   =  -2.4340433741634E-05
(PID.TID 0000.0001) %MON vort_r_max                   =   3.6413769623181E-05
(PID.TID 0000.0001) %MON vort_a_mean                  =  -1.9727864647440E-05
(PID.TID 0000.0001) %MON vort_a_sd                    =   7.4543015189147E-05
(PID.TID 0000.0001) %MON vort_p_mean                  =  -2.1760538293649E-05
(PID.TID 0000.0001) %MON vort_p_sd                    =   9.7247226463151E-05
(PID.TID 0000.0001) %MON surfExpan_theta_mean         =  -6.4163448872945E-07
(PID.TID 0000.0001) %MON surfExpan_salt_mean          =  -5.1511392782952E-08
(PID.TID 0000.0001) // =======================================================
(PID.TID 0000.0001) // End MONITOR dynamic field statistics
(PID.TID 0000.0001) // =======================================================
(PID.TID 0000.0001) // =======================================================
(PID.TID 0000.0001) // Begin MONITOR SEAICE statistics
(PID.TID 0000.0001) // =======================================================
(PID.TID 0000.0001) %MON seaice_tsnumber              =                   216
(PID.TID 0000.0001) %MON seaice_time_sec              =   1.9440000000000E+05
(PID.TID 0000.0001) %MON seaice_uice_max              =   4.0000000000000E-01
(PID.TID 0000.0001) %MON seaice_uice_min              =  -4.0000000000000E-01
(PID.TID 0000.0001) %MON seaice_uice_mean             =  -8.3054598624025E-03
(PID.TID 0000.0001) %MON seaice_uice_sd               =   1.9802383574176E-01
(PID.TID 0000.0001) %MON seaice_uice_del2             =   2.2931571122150E-04
(PID.TID 0000.0001) %MON seaice_vice_max              =   4.0000000000000E-01
(PID.TID 0000.0001) %MON seaice_vice_min              =  -4.0000000000000E-01
(PID.TID 0000.0001) %MON seaice_vice_mean             =  -2.1960776359499E-02
(PID.TID 0000.0001) %MON seaice_vice_sd               =   2.1302038025672E-01
(PID.TID 0000.0001) %MON seaice_vice_del2             =   2.3932563818061E-04
(PID.TID 0000.0001) %MON seaice_area_max              =   1.0000000000000E+00
(PID.TID 0000.0001) %MON seaice_area_min              =   0.0000000000000E+00
(PID.TID 0000.0001) %MON seaice_area_mean             =   6.8727078516218E-02
(PID.TID 0000.0001) %MON seaice_area_sd               =   2.3485425514234E-01
(PID.TID 0000.0001) %MON seaice_area_del2             =   4.4181023241097E-04
(PID.TID 0000.0001) %MON seaice_heff_max              =   2.5188120580278E+01
(PID.TID 0000.0001) %MON seaice_heff_min              =   0.0000000000000E+00
(PID.TID 0000.0001) %MON seaice_heff_mean             =   2.1564112675870E-01
(PID.TID 0000.0001) %MON seaice_heff_sd               =   1.0699160261825E+00
(PID.TID 0000.0001) %MON seaice_heff_del2             =   3.8977080836458E-03
(PID.TID 0000.0001) %MON seaice_hsnow_max             =   8.3192324897100E+00
(PID.TID 0000.0001) %MON seaice_hsnow_min             =   0.0000000000000E+00
(PID.TID 0000.0001) %MON seaice_hsnow_mean            =   2.4430445074310E-02
(PID.TID 0000.0001) %MON seaice_hsnow_sd              =   1.5737769989139E-01
(PID.TID 0000.0001) %MON seaice_hsnow_del2            =   1.2508182381448E-03
(PID.TID 0000.0001) // =======================================================
(PID.TID 0000.0001) // End MONITOR SEAICE statistics
(PID.TID 0000.0001) // =======================================================
 Computing Diagnostic #     86  oceQnet      Counter:       4   Parms: SM      U1      
 Computing Diagnostic #     87  oceQsw       Counter:       4   Parms: SM      U1      
 Computing Diagnostic #     84  oceFWflx     Counter:       4   Parms: SM      U1      
 Computing Diagnostic #     85  oceSflux     Counter:       4   Parms: SM      U1      
 Computing Diagnostic #     80  oceTAUX      Counter:       4   Parms: UU      U1      
           Vector  Mate for  oceTAUX      Diagnostic #     81  oceTAUY  exists 
 Computing Diagnostic #     81  oceTAUY      Counter:       4   Parms: VV      U1      
           Vector  Mate for  oceTAUY      Diagnostic #     80  oceTAUX  exists 
 Computing Diagnostic #     26  THETA        Counter:       4   Parms: SMR     MR      
 Computing Diagnostic #     27  SALT         Counter:       4   Parms: SMR     MR      
 Computing Diagnostic #     30  UVEL         Counter:       4   Parms: UUR     MR      
           Vector  Mate for  UVEL         Diagnostic #     31  VVEL     exists 
 Computing Diagnostic #     31  VVEL         Counter:       4   Parms: VVR     MR      
           Vector  Mate for  VVEL         Diagnostic #     30  UVEL     exists 
 Computing Diagnostic #    214  SIarea       Counter:       4   Parms: SM      M1      
 Computing Diagnostic #    217  SIheff       Counter:       4   Parms: SM      M1      
 Computing Diagnostic #    219  SIhsnow      Counter:       4   Parms: SM      M1      
 Computing Diagnostic #     83  sIceLoad     Counter:       4   Parms: SM      U1      
 Computing Diagnostic #    223  SIuice       Counter:       4   Parms: UU      M1      
           Vector  Mate for  SIuice       Diagnostic #    224  SIvice   exists 
 Computing Diagnostic #    224  SIvice       Counter:       4   Parms: VV      M1      
           Vector  Mate for  SIvice       Diagnostic #    223  SIuice   exists 
 Computing Diagnostic #    225  SItaux       Counter:       4   Parms: UU      U1      
           Vector  Mate for  SItaux       Diagnostic #    226  SItauy   exists 
 Computing Diagnostic #    226  SItauy       Counter:       4   Parms: VV      U1      
           Vector  Mate for  SItauy       Diagnostic #    225  SItaux   exists 
 Computing Diagnostic #    285  SIareaN      Counter:       4   Parms: SM      MX      
 Computing Diagnostic #    284  SIheffN      Counter:       4   Parms: SM      MX      
 Computing Diagnostic #    286  SIhsnowN     Counter:       4   Parms: SM      MX      
 Compute Stats, Diag. #    214  SIarea    vol(   0 ): 3.580E+14  Parms: SM      M1      
 Compute Stats, Diag. #    217  SIheff    vol(   0 ): 3.580E+14  Parms: SM      M1      
 Compute Stats, Diag. #    219  SIhsnow   vol(   0 ): 3.580E+14  Parms: SM      M1      
 Compute Stats, Diag. #     83  sIceLoad  vol(   0 ): 3.580E+14  Parms: SM      U1      
 Compute Stats, Diag. #    223  SIuice    vol(   0 ): 3.513E+14  Parms: UU      M1      
 Compute Stats, Diag. #    224  SIvice    vol(   0 ): 3.508E+14  Parms: VV      M1      
 Compute Stats, Diag. #    225  SItaux    vol(   0 ): 3.513E+14  Parms: UU      U1      
 Compute Stats, Diag. #    226  SItauy    vol(   0 ): 3.508E+14  Parms: VV      U1      
 cg2d: Sum(rhs),rhsMax =   4.36821781453254E+01  2.93466541679095E-01
 Compute Stats, Diag. #    214  SIarea    vol(   0 ): 3.580E+14  Parms: SM      M1      
 Compute Stats, Diag. #    217  SIheff    vol(   0 ): 3.580E+14  Parms: SM      M1      
 Compute Stats, Diag. #    219  SIhsnow   vol(   0 ): 3.580E+14  Parms: SM      M1      
 Compute Stats, Diag. #     83  sIceLoad  vol(   0 ): 3.580E+14  Parms: SM      U1      
 Compute Stats, Diag. #    223  SIuice    vol(   0 ): 3.513E+14  Parms: UU      M1      
 Compute Stats, Diag. #    224  SIvice    vol(   0 ): 3.508E+14  Parms: VV      M1      
 Compute Stats, Diag. #    225  SItaux    vol(   0 ): 3.513E+14  Parms: UU      U1      
 Compute Stats, Diag. #    226  SItauy    vol(   0 ): 3.508E+14  Parms: VV      U1      
 cg2d: Sum(rhs),rhsMax =   4.35494763154340E+01  2.93343727032529E-01
 Compute Stats, Diag. #    214  SIarea    vol(   0 ): 3.580E+14  Parms: SM      M1      
 Compute Stats, Diag. #    217  SIheff    vol(   0 ): 3.580E+14  Parms: SM      M1      
 Compute Stats, Diag. #    219  SIhsnow   vol(   0 ): 3.580E+14  Parms: SM      M1      
 Compute Stats, Diag. #     83  sIceLoad  vol(   0 ): 3.580E+14  Parms: SM      U1      
 Compute Stats, Diag. #    223  SIuice    vol(   0 ): 3.513E+14  Parms: UU      M1      
 Compute Stats, Diag. #    224  SIvice    vol(   0 ): 3.508E+14  Parms: VV      M1      
 Compute Stats, Diag. #    225  SItaux    vol(   0 ): 3.513E+14  Parms: UU      U1      
 Compute Stats, Diag. #    226  SItauy    vol(   0 ): 3.508E+14  Parms: VV      U1      
 cg2d: Sum(rhs),rhsMax =   4.34179274412261E+01  2.93227859057531E-01
 Compute Stats, Diag. #    214  SIarea    vol(   0 ): 3.580E+14  Parms: SM      M1      
 Compute Stats, Diag. #    217  SIheff    vol(   0 ): 3.580E+14  Parms: SM      M1      
 Compute Stats, Diag. #    219  SIhsnow   vol(   0 ): 3.580E+14  Parms: SM      M1      
 Compute Stats, Diag. #     83  sIceLoad  vol(   0 ): 3.580E+14  Parms: SM      U1      
 Compute Stats, Diag. #    223  SIuice    vol(   0 ): 3.513E+14  Parms: UU      M1      
 Compute Stats, Diag. #    224  SIvice    vol(   0 ): 3.508E+14  Parms: VV      M1      
 Compute Stats, Diag. #    225  SItaux    vol(   0 ): 3.513E+14  Parms: UU      U1      
 Compute Stats, Diag. #    226  SItauy    vol(   0 ): 3.508E+14  Parms: VV      U1      
 cg2d: Sum(rhs),rhsMax =   4.32788668403374E+01  2.93118073262212E-01
 Computing Diagnostic #     86  oceQnet      Counter:       4   Parms: SM      U1      
 Computing Diagnostic #     87  oceQsw       Counter:       4   Parms: SM      U1      
 Computing Diagnostic #     84  oceFWflx     Counter:       4   Parms: SM      U1      
 Computing Diagnostic #     85  oceSflux     Counter:       4   Parms: SM      U1      
 Computing Diagnostic #     80  oceTAUX      Counter:       4   Parms: UU      U1      
           Vector  Mate for  oceTAUX      Diagnostic #     81  oceTAUY  exists 
 Computing Diagnostic #     81  oceTAUY      Counter:       4   Parms: VV      U1      
           Vector  Mate for  oceTAUY      Diagnostic #     80  oceTAUX  exists 
 Computing Diagnostic #     26  THETA        Counter:       4   Parms: SMR     MR      
 Computing Diagnostic #     27  SALT         Counter:       4   Parms: SMR     MR      
 Computing Diagnostic #     30  UVEL         Counter:       4   Parms: UUR     MR      
           Vector  Mate for  UVEL         Diagnostic #     31  VVEL     exists 
 Computing Diagnostic #     31  VVEL         Counter:       4   Parms: VVR     MR      
           Vector  Mate for  VVEL         Diagnostic #     30  UVEL     exists 
 Computing Diagnostic #    214  SIarea       Counter:       4   Parms: SM      M1      
 Computing Diagnostic #    217  SIheff       Counter:       4   Parms: SM      M1      
 Computing Diagnostic #    219  SIhsnow      Counter:       4   Parms: SM      M1      
 Computing Diagnostic #     83  sIceLoad     Counter:       4   Parms: SM      U1      
 Computing Diagnostic #    223  SIuice       Counter:       4   Parms: UU      M1      
           Vector  Mate for  SIuice       Diagnostic #    224  SIvice   exists 
 Computing Diagnostic #    224  SIvice       Counter:       4   Parms: VV      M1      
           Vector  Mate for  SIvice       Diagnostic #    223  SIuice   exists 
 Computing Diagnostic #    225  SItaux       Counter:       4   Parms: UU      U1      
           Vector  Mate for  SItaux       Diagnostic #    226  SItauy   exists 
 Computing Diagnostic #    226  SItauy       Counter:       4   Parms: VV      U1      
           Vector  Mate for  SItauy       Diagnostic #    225  SItaux   exists 
 Computing Diagnostic #    285  SIareaN      Counter:       4   Parms: SM      MX      
 Computing Diagnostic #    284  SIheffN      Counter:       4   Parms: SM      MX      
 Computing Diagnostic #    286  SIhsnowN     Counter:       4   Parms: SM      MX      
 Compute Stats, Diag. #    214  SIarea    vol(   0 ): 3.580E+14  Parms: SM      M1      
 Compute Stats, Diag. #    217  SIheff    vol(   0 ): 3.580E+14  Parms: SM      M1      
 Compute Stats, Diag. #    219  SIhsnow   vol(   0 ): 3.580E+14  Parms: SM      M1      
 Compute Stats, Diag. #     83  sIceLoad  vol(   0 ): 3.580E+14  Parms: SM      U1      
 Compute Stats, Diag. #    223  SIuice    vol(   0 ): 3.513E+14  Parms: UU      M1      
 Compute Stats, Diag. #    224  SIvice    vol(   0 ): 3.508E+14  Parms: VV      M1      
 Compute Stats, Diag. #    225  SItaux    vol(   0 ): 3.513E+14  Parms: UU      U1      
 Compute Stats, Diag. #    226  SItauy    vol(   0 ): 3.508E+14  Parms: VV      U1      
 cg2d: Sum(rhs),rhsMax =   4.31352927214735E+01  2.93015524072207E-01
 Compute Stats, Diag. #    214  SIarea    vol(   0 ): 3.580E+14  Parms: SM      M1      
 Compute Stats, Diag. #    217  SIheff    vol(   0 ): 3.580E+14  Parms: SM      M1      
 Compute Stats, Diag. #    219  SIhsnow   vol(   0 ): 3.580E+14  Parms: SM      M1      
 Compute Stats, Diag. #     83  sIceLoad  vol(   0 ): 3.580E+14  Parms: SM      U1      
 Compute Stats, Diag. #    223  SIuice    vol(   0 ): 3.513E+14  Parms: UU      M1      
 Compute Stats, Diag. #    224  SIvice    vol(   0 ): 3.508E+14  Parms: VV      M1      
 Compute Stats, Diag. #    225  SItaux    vol(   0 ): 3.513E+14  Parms: UU      U1      
 Compute Stats, Diag. #    226  SItauy    vol(   0 ): 3.508E+14  Parms: VV      U1      
 cg2d: Sum(rhs),rhsMax =   4.29949249993775E+01  2.92920591390673E-01
 Compute Stats, Diag. #    214  SIarea    vol(   0 ): 3.580E+14  Parms: SM      M1      
 Compute Stats, Diag. #    217  SIheff    vol(   0 ): 3.580E+14  Parms: SM      M1      
 Compute Stats, Diag. #    219  SIhsnow   vol(   0 ): 3.580E+14  Parms: SM      M1      
 Compute Stats, Diag. #     83  sIceLoad  vol(   0 ): 3.580E+14  Parms: SM      U1      
 Compute Stats, Diag. #    223  SIuice    vol(   0 ): 3.513E+14  Parms: UU      M1      
 Compute Stats, Diag. #    224  SIvice    vol(   0 ): 3.508E+14  Parms: VV      M1      
 Compute Stats, Diag. #    225  SItaux    vol(   0 ): 3.513E+14  Parms: UU      U1      
 Compute Stats, Diag. #    226  SItauy    vol(   0 ): 3.508E+14  Parms: VV      U1      
 cg2d: Sum(rhs),rhsMax =   4.28513160179585E+01  2.92832974656354E-01
 Compute Stats, Diag. #    214  SIarea    vol(   0 ): 3.580E+14  Parms: SM      M1      
 Compute Stats, Diag. #    217  SIheff    vol(   0 ): 3.580E+14  Parms: SM      M1      
 Compute Stats, Diag. #    219  SIhsnow   vol(   0 ): 3.580E+14  Parms: SM      M1      
 Compute Stats, Diag. #     83  sIceLoad  vol(   0 ): 3.580E+14  Parms: SM      U1      
 Compute Stats, Diag. #    223  SIuice    vol(   0 ): 3.513E+14  Parms: UU      M1      
 Compute Stats, Diag. #    224  SIvice    vol(   0 ): 3.508E+14  Parms: VV      M1      
 Compute Stats, Diag. #    225  SItaux    vol(   0 ): 3.513E+14  Parms: UU      U1      
 Compute Stats, Diag. #    226  SItauy    vol(   0 ): 3.508E+14  Parms: VV      U1      
 cg2d: Sum(rhs),rhsMax =   4.27054841057068E+01  2.92752771468190E-01
(PID.TID 0000.0001)      cg2d_init_res =   1.43578263529906E-01
(PID.TID 0000.0001)      cg2d_iters(min,last) =      -1      28
(PID.TID 0000.0001)      cg2d_last_res =   2.61191021659538E-05
(PID.TID 0000.0001) // =======================================================
(PID.TID 0000.0001) // Begin MONITOR dynamic field statistics
(PID.TID 0000.0001) // =======================================================
(PID.TID 0000.0001) %MON time_tsnumber                =                   224
(PID.TID 0000.0001) %MON time_secondsf                =   2.0160000000000E+05
(PID.TID 0000.0001) %MON dynstat_eta_max              =   1.0711366340121E+00
(PID.TID 0000.0001) %MON dynstat_eta_min              =  -2.3628672708281E+00
(PID.TID 0000.0001) %MON dynstat_eta_mean             =  -1.3509108545299E-03
(PID.TID 0000.0001) %MON dynstat_eta_sd               =   6.5638699130279E-01
(PID.TID 0000.0001) %MON dynstat_eta_del2             =   6.5800622918562E-05
(PID.TID 0000.0001) %MON dynstat_uvel_max             =   8.5648429845865E-01
(PID.TID 0000.0001) %MON dynstat_uvel_min             =  -9.4725442587919E-01
(PID.TID 0000.0001) %MON dynstat_uvel_mean            =   1.0958125289325E-03
(PID.TID 0000.0001) %MON dynstat_uvel_sd              =   2.0293096244408E-02
(PID.TID 0000.0001) %MON dynstat_uvel_del2            =   9.0079375660932E-06
(PID.TID 0000.0001) %MON dynstat_vvel_max             =   1.2630728168695E+00
(PID.TID 0000.0001) %MON dynstat_vvel_min             =  -8.4673011393605E-01
(PID.TID 0000.0001) %MON dynstat_vvel_mean            =   1.1529202759451E-03
(PID.TID 0000.0001) %MON dynstat_vvel_sd              =   2.0900940442267E-02
(PID.TID 0000.0001) %MON dynstat_vvel_del2            =   9.2647854220267E-06
(PID.TID 0000.0001) %MON dynstat_wvel_max             =   1.0325623529239E-03
(PID.TID 0000.0001) %MON dynstat_wvel_min             =  -8.8306165588941E-04
(PID.TID 0000.0001) %MON dynstat_wvel_mean            =   2.2099674640567E-08
(PID.TID 0000.0001) %MON dynstat_wvel_sd              =   2.3093144990288E-05
(PID.TID 0000.0001) %MON dynstat_wvel_del2            =   2.2969354257115E-08
(PID.TID 0000.0001) %MON dynstat_theta_max            =   3.2462120505086E+01
(PID.TID 0000.0001) %MON dynstat_theta_min            =  -2.0415060667016E+00
(PID.TID 0000.0001) %MON dynstat_theta_mean           =   3.5904751524564E+00
(PID.TID 0000.0001) %MON dynstat_theta_sd             =   4.4362835043491E+00
(PID.TID 0000.0001) %MON dynstat_theta_del2           =   9.8915130393041E-05
(PID.TID 0000.0001) %MON dynstat_salt_max             =   4.0711546867322E+01
(PID.TID 0000.0001) %MON dynstat_salt_min             =   1.2303237405884E+01
(PID.TID 0000.0001) %MON dynstat_salt_mean            =   3.4725585496895E+01
(PID.TID 0000.0001) %MON dynstat_salt_sd              =   3.7701598117161E-01
(PID.TID 0000.0001) %MON dynstat_salt_del2            =   3.1421828800386E-05
(PID.TID 0000.0001) %MON dynstat_sst_max              =   3.2462120505086E+01
(PID.TID 0000.0001) %MON dynstat_sst_min              =  -1.8259235106241E+00
(PID.TID 0000.0001) %MON dynstat_sst_mean             =   1.8490815368161E+01
(PID.TID 0000.0001) %MON dynstat_sst_sd               =   1.0153061847658E+01
(PID.TID 0000.0001) %MON dynstat_sst_del2             =   8.2566387053056E-04
(PID.TID 0000.0001) %MON dynstat_sss_max              =   3.9166191931150E+01
(PID.TID 0000.0001) %MON dynstat_sss_min              =   1.2303237405884E+01
(PID.TID 0000.0001) %MON dynstat_sss_mean             =   3.4695527058303E+01
(PID.TID 0000.0001) %MON dynstat_sss_sd               =   1.1438382846767E+00
(PID.TID 0000.0001) %MON dynstat_sss_del2             =   8.6627307825980E-04
(PID.TID 0000.0001) %MON forcing_qnet_max             =   8.9645776367188E+02
(PID.TID 0000.0001) %MON forcing_qnet_min             =  -8.9948913937071E+02
(PID.TID 0000.0001) %MON forcing_qnet_mean            =   1.7064080808066E+01
(PID.TID 0000.0001) %MON forcing_qnet_sd              =   1.8162190963163E+02
(PID.TID 0000.0001) %MON forcing_qnet_del2            =   3.3747703964564E-01
(PID.TID 0000.0001) %MON forcing_qsw_max              =   0.0000000000000E+00
(PID.TID 0000.0001) %MON forcing_qsw_min              =  -1.0716549968546E+02
(PID.TID 0000.0001) %MON forcing_qsw_mean             =  -1.6680921932104E+01
(PID.TID 0000.0001) %MON forcing_qsw_sd               =   2.6335598927460E+01
(PID.TID 0000.0001) %MON forcing_qsw_del2             =   2.1138389714173E-02
(PID.TID 0000.0001) %MON forcing_empmr_max            =   9.0671115322039E-04
(PID.TID 0000.0001) %MON forcing_empmr_min            =  -4.6876706182957E-02
(PID.TID 0000.0001) %MON forcing_empmr_mean           =  -5.2743443174768E-06
(PID.TID 0000.0001) %MON forcing_empmr_sd             =   2.1378778442436E-04
(PID.TID 0000.0001) %MON forcing_empmr_del2           =   2.8162102370386E-06
(PID.TID 0000.0001) %MON forcing_fu_max               =   6.1490705609322E-01
(PID.TID 0000.0001) %MON forcing_fu_min               =  -8.7295701654210E-01
(PID.TID 0000.0001) %MON forcing_fu_mean              =   2.8360789759561E-03
(PID.TID 0000.0001) %MON forcing_fu_sd                =   9.3050707035511E-02
(PID.TID 0000.0001) %MON forcing_fu_del2              =   1.2569371724354E-04
(PID.TID 0000.0001) %MON forcing_fv_max               =   1.3455629348755E+00
(PID.TID 0000.0001) %MON forcing_fv_min               =  -7.4592647116633E-01
(PID.TID 0000.0001) %MON forcing_fv_mean              =  -6.9373239476034E-03
(PID.TID 0000.0001) %MON forcing_fv_sd                =   1.1218828057197E-01
(PID.TID 0000.0001) %MON forcing_fv_del2              =   1.4654027408107E-04
(PID.TID 0000.0001) %MON trAdv_CFL_u_max              =   1.5541272104938E-02
(PID.TID 0000.0001) %MON trAdv_CFL_v_max              =   2.1843786538332E-02
(PID.TID 0000.0001) %MON trAdv_CFL_w_max              =   2.4502700690163E-02
(PID.TID 0000.0001) %MON advcfl_uvel_max              =   1.5672244394726E-02
(PID.TID 0000.0001) %MON advcfl_vvel_max              =   2.2420684531685E-02
(PID.TID 0000.0001) %MON advcfl_wvel_max              =   2.4277954012410E-02
(PID.TID 0000.0001) %MON advcfl_W_hf_max              =   2.4401963518089E-02
(PID.TID 0000.0001) %MON pe_b_mean                    =   5.6673522439861E-04
(PID.TID 0000.0001) %MON ke_max                       =   8.0832649746225E-01
(PID.TID 0000.0001) %MON ke_mean                      =   4.1043755774504E-04
(PID.TID 0000.0001) %MON ke_vol                       =   1.3349973916429E+18
(PID.TID 0000.0001) %MON vort_r_min                   =  -2.4090984706561E-05
(PID.TID 0000.0001) %MON vort_r_max                   =   3.6014340426967E-05
(PID.TID 0000.0001) %MON vort_a_mean                  =  -1.9727864647440E-05
(PID.TID 0000.0001) %MON vort_a_sd                    =   7.4543011700145E-05
(PID.TID 0000.0001) %MON vort_p_mean                  =  -2.1760538017536E-05
(PID.TID 0000.0001) %MON vort_p_sd                    =   9.7247248030860E-05
(PID.TID 0000.0001) %MON surfExpan_theta_mean         =  -3.9870696624730E-07
(PID.TID 0000.0001) %MON surfExpan_salt_mean          =  -4.3872242995106E-08
(PID.TID 0000.0001) // =======================================================
(PID.TID 0000.0001) // End MONITOR dynamic field statistics
(PID.TID 0000.0001) // =======================================================
(PID.TID 0000.0001) // =======================================================
(PID.TID 0000.0001) // Begin MONITOR SEAICE statistics
(PID.TID 0000.0001) // =======================================================
(PID.TID 0000.0001) %MON seaice_tsnumber              =                   224
(PID.TID 0000.0001) %MON seaice_time_sec              =   2.0160000000000E+05
(PID.TID 0000.0001) %MON seaice_uice_max              =   4.0000000000000E-01
(PID.TID 0000.0001) %MON seaice_uice_min              =  -4.0000000000000E-01
(PID.TID 0000.0001) %MON seaice_uice_mean             =  -8.3054598624025E-03
(PID.TID 0000.0001) %MON seaice_uice_sd               =   1.9802383574176E-01
(PID.TID 0000.0001) %MON seaice_uice_del2             =   2.2931571122150E-04
(PID.TID 0000.0001) %MON seaice_vice_max              =   4.0000000000000E-01
(PID.TID 0000.0001) %MON seaice_vice_min              =  -4.0000000000000E-01
(PID.TID 0000.0001) %MON seaice_vice_mean             =  -2.1960776359499E-02
(PID.TID 0000.0001) %MON seaice_vice_sd               =   2.1302038025672E-01
(PID.TID 0000.0001) %MON seaice_vice_del2             =   2.3932563818061E-04
(PID.TID 0000.0001) %MON seaice_area_max              =   1.0000000000000E+00
(PID.TID 0000.0001) %MON seaice_area_min              =   0.0000000000000E+00
(PID.TID 0000.0001) %MON seaice_area_mean             =   6.8653846769141E-02
(PID.TID 0000.0001) %MON seaice_area_sd               =   2.3474081762199E-01
(PID.TID 0000.0001) %MON seaice_area_del2             =   4.4085807440395E-04
(PID.TID 0000.0001) %MON seaice_heff_max              =   2.5184440102428E+01
(PID.TID 0000.0001) %MON seaice_heff_min              =   0.0000000000000E+00
(PID.TID 0000.0001) %MON seaice_heff_mean             =   2.1557764241876E-01
(PID.TID 0000.0001) %MON seaice_heff_sd               =   1.0698452440097E+00
(PID.TID 0000.0001) %MON seaice_heff_del2             =   3.8969019669023E-03
(PID.TID 0000.0001) %MON seaice_hsnow_max             =   8.3180181560747E+00
(PID.TID 0000.0001) %MON seaice_hsnow_min             =   0.0000000000000E+00
(PID.TID 0000.0001) %MON seaice_hsnow_mean            =   2.4421028580099E-02
(PID.TID 0000.0001) %MON seaice_hsnow_sd              =   1.5735307770544E-01
(PID.TID 0000.0001) %MON seaice_hsnow_del2            =   1.2506515191209E-03
(PID.TID 0000.0001) // =======================================================
(PID.TID 0000.0001) // End MONITOR SEAICE statistics
(PID.TID 0000.0001) // =======================================================
 Computing Diagnostic #     86  oceQnet      Counter:       4   Parms: SM      U1      
 Computing Diagnostic #     87  oceQsw       Counter:       4   Parms: SM      U1      
 Computing Diagnostic #     84  oceFWflx     Counter:       4   Parms: SM      U1      
 Computing Diagnostic #     85  oceSflux     Counter:       4   Parms: SM      U1      
 Computing Diagnostic #     80  oceTAUX      Counter:       4   Parms: UU      U1      
           Vector  Mate for  oceTAUX      Diagnostic #     81  oceTAUY  exists 
 Computing Diagnostic #     81  oceTAUY      Counter:       4   Parms: VV      U1      
           Vector  Mate for  oceTAUY      Diagnostic #     80  oceTAUX  exists 
 Computing Diagnostic #     26  THETA        Counter:       4   Parms: SMR     MR      
 Computing Diagnostic #     27  SALT         Counter:       4   Parms: SMR     MR      
 Computing Diagnostic #     30  UVEL         Counter:       4   Parms: UUR     MR      
           Vector  Mate for  UVEL         Diagnostic #     31  VVEL     exists 
 Computing Diagnostic #     31  VVEL         Counter:       4   Parms: VVR     MR      
           Vector  Mate for  VVEL         Diagnostic #     30  UVEL     exists 
 Computing Diagnostic #    214  SIarea       Counter:       4   Parms: SM      M1      
 Computing Diagnostic #    217  SIheff       Counter:       4   Parms: SM      M1      
 Computing Diagnostic #    219  SIhsnow      Counter:       4   Parms: SM      M1      
 Computing Diagnostic #     83  sIceLoad     Counter:       4   Parms: SM      U1      
 Computing Diagnostic #    223  SIuice       Counter:       4   Parms: UU      M1      
           Vector  Mate for  SIuice       Diagnostic #    224  SIvice   exists 
 Computing Diagnostic #    224  SIvice       Counter:       4   Parms: VV      M1      
           Vector  Mate for  SIvice       Diagnostic #    223  SIuice   exists 
 Computing Diagnostic #    225  SItaux       Counter:       4   Parms: UU      U1      
           Vector  Mate for  SItaux       Diagnostic #    226  SItauy   exists 
 Computing Diagnostic #    226  SItauy       Counter:       4   Parms: VV      U1      
           Vector  Mate for  SItauy       Diagnostic #    225  SItaux   exists 
 Computing Diagnostic #    285  SIareaN      Counter:       4   Parms: SM      MX      
 Computing Diagnostic #    284  SIheffN      Counter:       4   Parms: SM      MX      
 Computing Diagnostic #    286  SIhsnowN     Counter:       4   Parms: SM      MX      
 Compute Stats, Diag. #    214  SIarea    vol(   0 ): 3.580E+14  Parms: SM      M1      
 Compute Stats, Diag. #    217  SIheff    vol(   0 ): 3.580E+14  Parms: SM      M1      
 Compute Stats, Diag. #    219  SIhsnow   vol(   0 ): 3.580E+14  Parms: SM      M1      
 Compute Stats, Diag. #     83  sIceLoad  vol(   0 ): 3.580E+14  Parms: SM      U1      
 Compute Stats, Diag. #    223  SIuice    vol(   0 ): 3.513E+14  Parms: UU      M1      
 Compute Stats, Diag. #    224  SIvice    vol(   0 ): 3.508E+14  Parms: VV      M1      
 Compute Stats, Diag. #    225  SItaux    vol(   0 ): 3.513E+14  Parms: UU      U1      
 Compute Stats, Diag. #    226  SItauy    vol(   0 ): 3.508E+14  Parms: VV      U1      
 cg2d: Sum(rhs),rhsMax =   4.25522255580238E+01  2.92680361587723E-01
 Compute Stats, Diag. #    214  SIarea    vol(   0 ): 3.580E+14  Parms: SM      M1      
 Compute Stats, Diag. #    217  SIheff    vol(   0 ): 3.580E+14  Parms: SM      M1      
 Compute Stats, Diag. #    219  SIhsnow   vol(   0 ): 3.580E+14  Parms: SM      M1      
 Compute Stats, Diag. #     83  sIceLoad  vol(   0 ): 3.580E+14  Parms: SM      U1      
 Compute Stats, Diag. #    223  SIuice    vol(   0 ): 3.513E+14  Parms: UU      M1      
 Compute Stats, Diag. #    224  SIvice    vol(   0 ): 3.508E+14  Parms: VV      M1      
 Compute Stats, Diag. #    225  SItaux    vol(   0 ): 3.513E+14  Parms: UU      U1      
 Compute Stats, Diag. #    226  SItauy    vol(   0 ): 3.508E+14  Parms: VV      U1      
 cg2d: Sum(rhs),rhsMax =   4.23998850493172E+01  2.92615638726208E-01
 Compute Stats, Diag. #    214  SIarea    vol(   0 ): 3.580E+14  Parms: SM      M1      
 Compute Stats, Diag. #    217  SIheff    vol(   0 ): 3.580E+14  Parms: SM      M1      
 Compute Stats, Diag. #    219  SIhsnow   vol(   0 ): 3.580E+14  Parms: SM      M1      
 Compute Stats, Diag. #     83  sIceLoad  vol(   0 ): 3.580E+14  Parms: SM      U1      
 Compute Stats, Diag. #    223  SIuice    vol(   0 ): 3.513E+14  Parms: UU      M1      
 Compute Stats, Diag. #    224  SIvice    vol(   0 ): 3.508E+14  Parms: VV      M1      
 Compute Stats, Diag. #    225  SItaux    vol(   0 ): 3.513E+14  Parms: UU      U1      
 Compute Stats, Diag. #    226  SItauy    vol(   0 ): 3.508E+14  Parms: VV      U1      
 cg2d: Sum(rhs),rhsMax =   4.22454047969618E+01  2.92557579155843E-01
 Compute Stats, Diag. #    214  SIarea    vol(   0 ): 3.580E+14  Parms: SM      M1      
 Compute Stats, Diag. #    217  SIheff    vol(   0 ): 3.580E+14  Parms: SM      M1      
 Compute Stats, Diag. #    219  SIhsnow   vol(   0 ): 3.580E+14  Parms: SM      M1      
 Compute Stats, Diag. #     83  sIceLoad  vol(   0 ): 3.580E+14  Parms: SM      U1      
 Compute Stats, Diag. #    223  SIuice    vol(   0 ): 3.513E+14  Parms: UU      M1      
 Compute Stats, Diag. #    224  SIvice    vol(   0 ): 3.508E+14  Parms: VV      M1      
 Compute Stats, Diag. #    225  SItaux    vol(   0 ): 3.513E+14  Parms: UU      U1      
 Compute Stats, Diag. #    226  SItauy    vol(   0 ): 3.508E+14  Parms: VV      U1      
 cg2d: Sum(rhs),rhsMax =   4.20886632550784E+01  2.92507381031640E-01
 Computing Diagnostic #     86  oceQnet      Counter:       4   Parms: SM      U1      
 Computing Diagnostic #     87  oceQsw       Counter:       4   Parms: SM      U1      
 Computing Diagnostic #     84  oceFWflx     Counter:       4   Parms: SM      U1      
 Computing Diagnostic #     85  oceSflux     Counter:       4   Parms: SM      U1      
 Computing Diagnostic #     80  oceTAUX      Counter:       4   Parms: UU      U1      
           Vector  Mate for  oceTAUX      Diagnostic #     81  oceTAUY  exists 
 Computing Diagnostic #     81  oceTAUY      Counter:       4   Parms: VV      U1      
           Vector  Mate for  oceTAUY      Diagnostic #     80  oceTAUX  exists 
 Computing Diagnostic #     26  THETA        Counter:       4   Parms: SMR     MR      
 Computing Diagnostic #     27  SALT         Counter:       4   Parms: SMR     MR      
 Computing Diagnostic #     30  UVEL         Counter:       4   Parms: UUR     MR      
           Vector  Mate for  UVEL         Diagnostic #     31  VVEL     exists 
 Computing Diagnostic #     31  VVEL         Counter:       4   Parms: VVR     MR      
           Vector  Mate for  VVEL         Diagnostic #     30  UVEL     exists 
 Computing Diagnostic #    214  SIarea       Counter:       4   Parms: SM      M1      
 Computing Diagnostic #    217  SIheff       Counter:       4   Parms: SM      M1      
 Computing Diagnostic #    219  SIhsnow      Counter:       4   Parms: SM      M1      
 Computing Diagnostic #     83  sIceLoad     Counter:       4   Parms: SM      U1      
 Computing Diagnostic #    223  SIuice       Counter:       4   Parms: UU      M1      
           Vector  Mate for  SIuice       Diagnostic #    224  SIvice   exists 
 Computing Diagnostic #    224  SIvice       Counter:       4   Parms: VV      M1      
           Vector  Mate for  SIvice       Diagnostic #    223  SIuice   exists 
 Computing Diagnostic #    225  SItaux       Counter:       4   Parms: UU      U1      
           Vector  Mate for  SItaux       Diagnostic #    226  SItauy   exists 
 Computing Diagnostic #    226  SItauy       Counter:       4   Parms: VV      U1      
           Vector  Mate for  SItauy       Diagnostic #    225  SItaux   exists 
 Computing Diagnostic #    285  SIareaN      Counter:       4   Parms: SM      MX      
 Computing Diagnostic #    284  SIheffN      Counter:       4   Parms: SM      MX      
 Computing Diagnostic #    286  SIhsnowN     Counter:       4   Parms: SM      MX      
 Compute Stats, Diag. #    214  SIarea    vol(   0 ): 3.580E+14  Parms: SM      M1      
 Compute Stats, Diag. #    217  SIheff    vol(   0 ): 3.580E+14  Parms: SM      M1      
 Compute Stats, Diag. #    219  SIhsnow   vol(   0 ): 3.580E+14  Parms: SM      M1      
 Compute Stats, Diag. #     83  sIceLoad  vol(   0 ): 3.580E+14  Parms: SM      U1      
 Compute Stats, Diag. #    223  SIuice    vol(   0 ): 3.513E+14  Parms: UU      M1      
 Compute Stats, Diag. #    224  SIvice    vol(   0 ): 3.508E+14  Parms: VV      M1      
 Compute Stats, Diag. #    225  SItaux    vol(   0 ): 3.513E+14  Parms: UU      U1      
 Compute Stats, Diag. #    226  SItauy    vol(   0 ): 3.508E+14  Parms: VV      U1      
 cg2d: Sum(rhs),rhsMax =   4.19316036113184E+01  2.92462999741978E-01
 Compute Stats, Diag. #    214  SIarea    vol(   0 ): 3.580E+14  Parms: SM      M1      
 Compute Stats, Diag. #    217  SIheff    vol(   0 ): 3.580E+14  Parms: SM      M1      
 Compute Stats, Diag. #    219  SIhsnow   vol(   0 ): 3.580E+14  Parms: SM      M1      
 Compute Stats, Diag. #     83  sIceLoad  vol(   0 ): 3.580E+14  Parms: SM      U1      
 Compute Stats, Diag. #    223  SIuice    vol(   0 ): 3.513E+14  Parms: UU      M1      
 Compute Stats, Diag. #    224  SIvice    vol(   0 ): 3.508E+14  Parms: VV      M1      
 Compute Stats, Diag. #    225  SItaux    vol(   0 ): 3.513E+14  Parms: UU      U1      
 Compute Stats, Diag. #    226  SItauy    vol(   0 ): 3.508E+14  Parms: VV      U1      
 cg2d: Sum(rhs),rhsMax =   4.17707416328867E+01  2.92424781678848E-01
 Compute Stats, Diag. #    214  SIarea    vol(   0 ): 3.580E+14  Parms: SM      M1      
 Compute Stats, Diag. #    217  SIheff    vol(   0 ): 3.580E+14  Parms: SM      M1      
 Compute Stats, Diag. #    219  SIhsnow   vol(   0 ): 3.580E+14  Parms: SM      M1      
 Compute Stats, Diag. #     83  sIceLoad  vol(   0 ): 3.580E+14  Parms: SM      U1      
 Compute Stats, Diag. #    223  SIuice    vol(   0 ): 3.513E+14  Parms: UU      M1      
 Compute Stats, Diag. #    224  SIvice    vol(   0 ): 3.508E+14  Parms: VV      M1      
 Compute Stats, Diag. #    225  SItaux    vol(   0 ): 3.513E+14  Parms: UU      U1      
 Compute Stats, Diag. #    226  SItauy    vol(   0 ): 3.508E+14  Parms: VV      U1      
 cg2d: Sum(rhs),rhsMax =   4.16053924261607E+01  2.92391068249104E-01
 Compute Stats, Diag. #    214  SIarea    vol(   0 ): 3.580E+14  Parms: SM      M1      
 Compute Stats, Diag. #    217  SIheff    vol(   0 ): 3.580E+14  Parms: SM      M1      
 Compute Stats, Diag. #    219  SIhsnow   vol(   0 ): 3.580E+14  Parms: SM      M1      
 Compute Stats, Diag. #     83  sIceLoad  vol(   0 ): 3.580E+14  Parms: SM      U1      
 Compute Stats, Diag. #    223  SIuice    vol(   0 ): 3.513E+14  Parms: UU      M1      
 Compute Stats, Diag. #    224  SIvice    vol(   0 ): 3.508E+14  Parms: VV      M1      
 Compute Stats, Diag. #    225  SItaux    vol(   0 ): 3.513E+14  Parms: UU      U1      
 Compute Stats, Diag. #    226  SItauy    vol(   0 ): 3.508E+14  Parms: VV      U1      
 cg2d: Sum(rhs),rhsMax =   4.14365576827724E+01  2.92362156665166E-01
(PID.TID 0000.0001)      cg2d_init_res =   1.36240169526908E-01
(PID.TID 0000.0001)      cg2d_iters(min,last) =      -1      28
(PID.TID 0000.0001)      cg2d_last_res =   2.43810367409945E-05
(PID.TID 0000.0001) // =======================================================
(PID.TID 0000.0001) // Begin MONITOR dynamic field statistics
(PID.TID 0000.0001) // =======================================================
(PID.TID 0000.0001) %MON time_tsnumber                =                   232
(PID.TID 0000.0001) %MON time_secondsf                =   2.0880000000000E+05
(PID.TID 0000.0001) %MON dynstat_eta_max              =   1.0701036665952E+00
(PID.TID 0000.0001) %MON dynstat_eta_min              =  -2.3052936675504E+00
(PID.TID 0000.0001) %MON dynstat_eta_mean             =  -1.3107706590904E-03
(PID.TID 0000.0001) %MON dynstat_eta_sd               =   6.5541625294915E-01
(PID.TID 0000.0001) %MON dynstat_eta_del2             =   6.5603531162584E-05
(PID.TID 0000.0001) %MON dynstat_uvel_max             =   8.6427518353209E-01
(PID.TID 0000.0001) %MON dynstat_uvel_min             =  -9.3635078308863E-01
(PID.TID 0000.0001) %MON dynstat_uvel_mean            =   1.1455691828281E-03
(PID.TID 0000.0001) %MON dynstat_uvel_sd              =   2.0240925145131E-02
(PID.TID 0000.0001) %MON dynstat_uvel_del2            =   8.8990828184871E-06
(PID.TID 0000.0001) %MON dynstat_vvel_max             =   1.2487707212223E+00
(PID.TID 0000.0001) %MON dynstat_vvel_min             =  -8.5203778319892E-01
(PID.TID 0000.0001) %MON dynstat_vvel_mean            =   1.1226436731962E-03
(PID.TID 0000.0001) %MON dynstat_vvel_sd              =   2.0903118648669E-02
(PID.TID 0000.0001) %MON dynstat_vvel_del2            =   9.1778309761872E-06
(PID.TID 0000.0001) %MON dynstat_wvel_max             =   8.7196985718133E-04
(PID.TID 0000.0001) %MON dynstat_wvel_min             =  -8.5652447944593E-04
(PID.TID 0000.0001) %MON dynstat_wvel_mean            =   3.2538579261079E-08
(PID.TID 0000.0001) %MON dynstat_wvel_sd              =   2.2710967009749E-05
(PID.TID 0000.0001) %MON dynstat_wvel_del2            =   2.2253745846389E-08
(PID.TID 0000.0001) %MON dynstat_theta_max            =   3.2466300797399E+01
(PID.TID 0000.0001) %MON dynstat_theta_min            =  -2.0414881677672E+00
(PID.TID 0000.0001) %MON dynstat_theta_mean           =   3.5904620348807E+00
(PID.TID 0000.0001) %MON dynstat_theta_sd             =   4.4362517323460E+00
(PID.TID 0000.0001) %MON dynstat_theta_del2           =   9.8712779459501E-05
(PID.TID 0000.0001) %MON dynstat_salt_max             =   4.0711547416752E+01
(PID.TID 0000.0001) %MON dynstat_salt_min             =   1.2459316643786E+01
(PID.TID 0000.0001) %MON dynstat_salt_mean            =   3.4725584891521E+01
(PID.TID 0000.0001) %MON dynstat_salt_sd              =   3.7701494093875E-01
(PID.TID 0000.0001) %MON dynstat_salt_del2            =   3.1756002229056E-05
(PID.TID 0000.0001) %MON dynstat_sst_max              =   3.2466300797399E+01
(PID.TID 0000.0001) %MON dynstat_sst_min              =  -1.8239581994406E+00
(PID.TID 0000.0001) %MON dynstat_sst_mean             =   1.8487081652597E+01
(PID.TID 0000.0001) %MON dynstat_sst_sd               =   1.0154521134145E+01
(PID.TID 0000.0001) %MON dynstat_sst_del2             =   8.2472043075662E-04
(PID.TID 0000.0001) %MON dynstat_sss_max              =   3.9161856039738E+01
(PID.TID 0000.0001) %MON dynstat_sss_min              =   1.2459316643786E+01
(PID.TID 0000.0001) %MON dynstat_sss_mean             =   3.4695815501593E+01
(PID.TID 0000.0001) %MON dynstat_sss_sd               =   1.1445694432531E+00
(PID.TID 0000.0001) %MON dynstat_sss_del2             =   8.8684609743790E-04
(PID.TID 0000.0001) %MON forcing_qnet_max             =   2.2569887695312E+03
(PID.TID 0000.0001) %MON forcing_qnet_min             =  -9.8741680908203E+02
(PID.TID 0000.0001) %MON forcing_qnet_mean            =   3.4371262595764E+01
(PID.TID 0000.0001) %MON forcing_qnet_sd              =   1.7934342227418E+02
(PID.TID 0000.0001) %MON forcing_qnet_del2            =   3.4810617180375E-01
(PID.TID 0000.0001) %MON forcing_qsw_max              =   0.0000000000000E+00
(PID.TID 0000.0001) %MON forcing_qsw_min              =  -1.1041215305811E+02
(PID.TID 0000.0001) %MON forcing_qsw_mean             =  -1.4535427599554E+01
(PID.TID 0000.0001) %MON forcing_qsw_sd               =   2.6573670509245E+01
(PID.TID 0000.0001) %MON forcing_qsw_del2             =   1.8857802910476E-02
(PID.TID 0000.0001) %MON forcing_empmr_max            =   1.5157483285293E-03
(PID.TID 0000.0001) %MON forcing_empmr_min            =  -1.0717858374119E-01
(PID.TID 0000.0001) %MON forcing_empmr_mean           =  -6.1062942647216E-06
(PID.TID 0000.0001) %MON forcing_empmr_sd             =   3.4526053344971E-04
(PID.TID 0000.0001) %MON forcing_empmr_del2           =   5.5633936754381E-06
(PID.TID 0000.0001) %MON forcing_fu_max               =   6.0169842839241E-01
(PID.TID 0000.0001) %MON forcing_fu_min               =  -8.4735074639320E-01
(PID.TID 0000.0001) %MON forcing_fu_mean              =   3.5584759409985E-03
(PID.TID 0000.0001) %MON forcing_fu_sd                =   9.1491052406163E-02
(PID.TID 0000.0001) %MON forcing_fu_del2              =   1.2004915119875E-04
(PID.TID 0000.0001) %MON forcing_fv_max               =   1.2881669402123E+00
(PID.TID 0000.0001) %MON forcing_fv_min               =  -6.6292732954025E-01
(PID.TID 0000.0001) %MON forcing_fv_mean              =  -7.8531948950715E-03
(PID.TID 0000.0001) %MON forcing_fv_sd                =   1.1211467745382E-01
(PID.TID 0000.0001) %MON forcing_fv_del2              =   1.4479295017989E-04
(PID.TID 0000.0001) %MON trAdv_CFL_u_max              =   1.5363680450901E-02
(PID.TID 0000.0001) %MON trAdv_CFL_v_max              =   2.1639947443964E-02
(PID.TID 0000.0001) %MON trAdv_CFL_w_max              =   2.6143641387175E-02
(PID.TID 0000.0001) %MON advcfl_uvel_max              =   1.5491844546557E-02
(PID.TID 0000.0001) %MON advcfl_vvel_max              =   2.2166809402425E-02
(PID.TID 0000.0001) %MON advcfl_wvel_max              =   2.5657463152112E-02
(PID.TID 0000.0001) %MON advcfl_W_hf_max              =   2.5918279791668E-02
(PID.TID 0000.0001) %MON pe_b_mean                    =   5.6506002190876E-04
(PID.TID 0000.0001) %MON ke_max                       =   7.8454055462014E-01
(PID.TID 0000.0001) %MON ke_mean                      =   4.0948250198126E-04
(PID.TID 0000.0001) %MON ke_vol                       =   1.3349974057532E+18
(PID.TID 0000.0001) %MON vort_r_min                   =  -2.3811276801550E-05
(PID.TID 0000.0001) %MON vort_r_max                   =   3.5686553666289E-05
(PID.TID 0000.0001) %MON vort_a_mean                  =  -1.9727864647440E-05
(PID.TID 0000.0001) %MON vort_a_sd                    =   7.4543002576150E-05
(PID.TID 0000.0001) %MON vort_p_mean                  =  -2.1760537849842E-05
(PID.TID 0000.0001) %MON vort_p_sd                    =   9.7247232016481E-05
(PID.TID 0000.0001) %MON surfExpan_theta_mean         =  -2.3624516875677E-07
(PID.TID 0000.0001) %MON surfExpan_salt_mean          =  -3.5259402531229E-08
(PID.TID 0000.0001) // =======================================================
(PID.TID 0000.0001) // End MONITOR dynamic field statistics
(PID.TID 0000.0001) // =======================================================
(PID.TID 0000.0001) // =======================================================
(PID.TID 0000.0001) // Begin MONITOR SEAICE statistics
(PID.TID 0000.0001) // =======================================================
(PID.TID 0000.0001) %MON seaice_tsnumber              =                   232
(PID.TID 0000.0001) %MON seaice_time_sec              =   2.0880000000000E+05
(PID.TID 0000.0001) %MON seaice_uice_max              =   4.0000000000000E-01
(PID.TID 0000.0001) %MON seaice_uice_min              =  -4.0000000000000E-01
(PID.TID 0000.0001) %MON seaice_uice_mean             =  -8.3054598624025E-03
(PID.TID 0000.0001) %MON seaice_uice_sd               =   1.9802383574176E-01
(PID.TID 0000.0001) %MON seaice_uice_del2             =   2.2931571122150E-04
(PID.TID 0000.0001) %MON seaice_vice_max              =   4.0000000000000E-01
(PID.TID 0000.0001) %MON seaice_vice_min              =  -4.0000000000000E-01
(PID.TID 0000.0001) %MON seaice_vice_mean             =  -2.1960776359499E-02
(PID.TID 0000.0001) %MON seaice_vice_sd               =   2.1302038025672E-01
(PID.TID 0000.0001) %MON seaice_vice_del2             =   2.3932563818061E-04
(PID.TID 0000.0001) %MON seaice_area_max              =   1.0000000000000E+00
(PID.TID 0000.0001) %MON seaice_area_min              =   0.0000000000000E+00
(PID.TID 0000.0001) %MON seaice_area_mean             =   6.8587515832183E-02
(PID.TID 0000.0001) %MON seaice_area_sd               =   2.3463641402179E-01
(PID.TID 0000.0001) %MON seaice_area_del2             =   4.3985766075293E-04
(PID.TID 0000.0001) %MON seaice_heff_max              =   2.5180762547767E+01
(PID.TID 0000.0001) %MON seaice_heff_min              =   0.0000000000000E+00
(PID.TID 0000.0001) %MON seaice_heff_mean             =   2.1551626973500E-01
(PID.TID 0000.0001) %MON seaice_heff_sd               =   1.0697755697844E+00
(PID.TID 0000.0001) %MON seaice_heff_del2             =   3.8960870202032E-03
(PID.TID 0000.0001) %MON seaice_hsnow_max             =   8.3168043365877E+00
(PID.TID 0000.0001) %MON seaice_hsnow_min             =   0.0000000000000E+00
(PID.TID 0000.0001) %MON seaice_hsnow_mean            =   2.4417191792056E-02
(PID.TID 0000.0001) %MON seaice_hsnow_sd              =   1.5733017498765E-01
(PID.TID 0000.0001) %MON seaice_hsnow_del2            =   1.2504858311760E-03
(PID.TID 0000.0001) // =======================================================
(PID.TID 0000.0001) // End MONITOR SEAICE statistics
(PID.TID 0000.0001) // =======================================================
 Computing Diagnostic #     86  oceQnet      Counter:       4   Parms: SM      U1      
 Computing Diagnostic #     87  oceQsw       Counter:       4   Parms: SM      U1      
 Computing Diagnostic #     84  oceFWflx     Counter:       4   Parms: SM      U1      
 Computing Diagnostic #     85  oceSflux     Counter:       4   Parms: SM      U1      
 Computing Diagnostic #     80  oceTAUX      Counter:       4   Parms: UU      U1      
           Vector  Mate for  oceTAUX      Diagnostic #     81  oceTAUY  exists 
 Computing Diagnostic #     81  oceTAUY      Counter:       4   Parms: VV      U1      
           Vector  Mate for  oceTAUY      Diagnostic #     80  oceTAUX  exists 
 Computing Diagnostic #     26  THETA        Counter:       4   Parms: SMR     MR      
 Computing Diagnostic #     27  SALT         Counter:       4   Parms: SMR     MR      
 Computing Diagnostic #     30  UVEL         Counter:       4   Parms: UUR     MR      
           Vector  Mate for  UVEL         Diagnostic #     31  VVEL     exists 
 Computing Diagnostic #     31  VVEL         Counter:       4   Parms: VVR     MR      
           Vector  Mate for  VVEL         Diagnostic #     30  UVEL     exists 
 Computing Diagnostic #    214  SIarea       Counter:       4   Parms: SM      M1      
 Computing Diagnostic #    217  SIheff       Counter:       4   Parms: SM      M1      
 Computing Diagnostic #    219  SIhsnow      Counter:       4   Parms: SM      M1      
 Computing Diagnostic #     83  sIceLoad     Counter:       4   Parms: SM      U1      
 Computing Diagnostic #    223  SIuice       Counter:       4   Parms: UU      M1      
           Vector  Mate for  SIuice       Diagnostic #    224  SIvice   exists 
 Computing Diagnostic #    224  SIvice       Counter:       4   Parms: VV      M1      
           Vector  Mate for  SIvice       Diagnostic #    223  SIuice   exists 
 Computing Diagnostic #    225  SItaux       Counter:       4   Parms: UU      U1      
           Vector  Mate for  SItaux       Diagnostic #    226  SItauy   exists 
 Computing Diagnostic #    226  SItauy       Counter:       4   Parms: VV      U1      
           Vector  Mate for  SItauy       Diagnostic #    225  SItaux   exists 
 Computing Diagnostic #    285  SIareaN      Counter:       4   Parms: SM      MX      
 Computing Diagnostic #    284  SIheffN      Counter:       4   Parms: SM      MX      
 Computing Diagnostic #    286  SIhsnowN     Counter:       4   Parms: SM      MX      
 Compute Stats, Diag. #    214  SIarea    vol(   0 ): 3.580E+14  Parms: SM      M1      
 Compute Stats, Diag. #    217  SIheff    vol(   0 ): 3.580E+14  Parms: SM      M1      
 Compute Stats, Diag. #    219  SIhsnow   vol(   0 ): 3.580E+14  Parms: SM      M1      
 Compute Stats, Diag. #     83  sIceLoad  vol(   0 ): 3.580E+14  Parms: SM      U1      
 Compute Stats, Diag. #    223  SIuice    vol(   0 ): 3.513E+14  Parms: UU      M1      
 Compute Stats, Diag. #    224  SIvice    vol(   0 ): 3.508E+14  Parms: VV      M1      
 Compute Stats, Diag. #    225  SItaux    vol(   0 ): 3.513E+14  Parms: UU      U1      
 Compute Stats, Diag. #    226  SItauy    vol(   0 ): 3.508E+14  Parms: VV      U1      
 cg2d: Sum(rhs),rhsMax =   4.12628966000700E+01  2.92336735666589E-01
 Compute Stats, Diag. #    214  SIarea    vol(   0 ): 3.580E+14  Parms: SM      M1      
 Compute Stats, Diag. #    217  SIheff    vol(   0 ): 3.580E+14  Parms: SM      M1      
 Compute Stats, Diag. #    219  SIhsnow   vol(   0 ): 3.580E+14  Parms: SM      M1      
 Compute Stats, Diag. #     83  sIceLoad  vol(   0 ): 3.580E+14  Parms: SM      U1      
 Compute Stats, Diag. #    223  SIuice    vol(   0 ): 3.513E+14  Parms: UU      M1      
 Compute Stats, Diag. #    224  SIvice    vol(   0 ): 3.508E+14  Parms: VV      M1      
 Compute Stats, Diag. #    225  SItaux    vol(   0 ): 3.513E+14  Parms: UU      U1      
 Compute Stats, Diag. #    226  SItauy    vol(   0 ): 3.508E+14  Parms: VV      U1      
 cg2d: Sum(rhs),rhsMax =   4.10928277597069E+01  2.92313935608878E-01
 Compute Stats, Diag. #    214  SIarea    vol(   0 ): 3.580E+14  Parms: SM      M1      
 Compute Stats, Diag. #    217  SIheff    vol(   0 ): 3.580E+14  Parms: SM      M1      
 Compute Stats, Diag. #    219  SIhsnow   vol(   0 ): 3.580E+14  Parms: SM      M1      
 Compute Stats, Diag. #     83  sIceLoad  vol(   0 ): 3.580E+14  Parms: SM      U1      
 Compute Stats, Diag. #    223  SIuice    vol(   0 ): 3.513E+14  Parms: UU      M1      
 Compute Stats, Diag. #    224  SIvice    vol(   0 ): 3.508E+14  Parms: VV      M1      
 Compute Stats, Diag. #    225  SItaux    vol(   0 ): 3.513E+14  Parms: UU      U1      
 Compute Stats, Diag. #    226  SItauy    vol(   0 ): 3.508E+14  Parms: VV      U1      
 cg2d: Sum(rhs),rhsMax =   4.09224344533411E+01  2.92293781658968E-01
 Compute Stats, Diag. #    214  SIarea    vol(   0 ): 3.580E+14  Parms: SM      M1      
 Compute Stats, Diag. #    217  SIheff    vol(   0 ): 3.580E+14  Parms: SM      M1      
 Compute Stats, Diag. #    219  SIhsnow   vol(   0 ): 3.580E+14  Parms: SM      M1      
 Compute Stats, Diag. #     83  sIceLoad  vol(   0 ): 3.580E+14  Parms: SM      U1      
 Compute Stats, Diag. #    223  SIuice    vol(   0 ): 3.513E+14  Parms: UU      M1      
 Compute Stats, Diag. #    224  SIvice    vol(   0 ): 3.508E+14  Parms: VV      M1      
 Compute Stats, Diag. #    225  SItaux    vol(   0 ): 3.513E+14  Parms: UU      U1      
 Compute Stats, Diag. #    226  SItauy    vol(   0 ): 3.508E+14  Parms: VV      U1      
 cg2d: Sum(rhs),rhsMax =   4.07508484782997E+01  2.92275176425301E-01
 Computing Diagnostic #     86  oceQnet      Counter:       4   Parms: SM      U1      
 Computing Diagnostic #     87  oceQsw       Counter:       4   Parms: SM      U1      
 Computing Diagnostic #     84  oceFWflx     Counter:       4   Parms: SM      U1      
 Computing Diagnostic #     85  oceSflux     Counter:       4   Parms: SM      U1      
 Computing Diagnostic #     80  oceTAUX      Counter:       4   Parms: UU      U1      
           Vector  Mate for  oceTAUX      Diagnostic #     81  oceTAUY  exists 
 Computing Diagnostic #     81  oceTAUY      Counter:       4   Parms: VV      U1      
           Vector  Mate for  oceTAUY      Diagnostic #     80  oceTAUX  exists 
 Computing Diagnostic #     26  THETA        Counter:       4   Parms: SMR     MR      
 Computing Diagnostic #     27  SALT         Counter:       4   Parms: SMR     MR      
 Computing Diagnostic #     30  UVEL         Counter:       4   Parms: UUR     MR      
           Vector  Mate for  UVEL         Diagnostic #     31  VVEL     exists 
 Computing Diagnostic #     31  VVEL         Counter:       4   Parms: VVR     MR      
           Vector  Mate for  VVEL         Diagnostic #     30  UVEL     exists 
 Computing Diagnostic #    214  SIarea       Counter:       4   Parms: SM      M1      
 Computing Diagnostic #    217  SIheff       Counter:       4   Parms: SM      M1      
 Computing Diagnostic #    219  SIhsnow      Counter:       4   Parms: SM      M1      
 Computing Diagnostic #     83  sIceLoad     Counter:       4   Parms: SM      U1      
 Computing Diagnostic #    223  SIuice       Counter:       4   Parms: UU      M1      
           Vector  Mate for  SIuice       Diagnostic #    224  SIvice   exists 
 Computing Diagnostic #    224  SIvice       Counter:       4   Parms: VV      M1      
           Vector  Mate for  SIvice       Diagnostic #    223  SIuice   exists 
 Computing Diagnostic #    225  SItaux       Counter:       4   Parms: UU      U1      
           Vector  Mate for  SItaux       Diagnostic #    226  SItauy   exists 
 Computing Diagnostic #    226  SItauy       Counter:       4   Parms: VV      U1      
           Vector  Mate for  SItauy       Diagnostic #    225  SItaux   exists 
 Computing Diagnostic #    285  SIareaN      Counter:       4   Parms: SM      MX      
 Computing Diagnostic #    284  SIheffN      Counter:       4   Parms: SM      MX      
 Computing Diagnostic #    286  SIhsnowN     Counter:       4   Parms: SM      MX      
 Compute Stats, Diag. #    214  SIarea    vol(   0 ): 3.580E+14  Parms: SM      M1      
 Compute Stats, Diag. #    217  SIheff    vol(   0 ): 3.580E+14  Parms: SM      M1      
 Compute Stats, Diag. #    219  SIhsnow   vol(   0 ): 3.580E+14  Parms: SM      M1      
 Compute Stats, Diag. #     83  sIceLoad  vol(   0 ): 3.580E+14  Parms: SM      U1      
 Compute Stats, Diag. #    223  SIuice    vol(   0 ): 3.513E+14  Parms: UU      M1      
 Compute Stats, Diag. #    224  SIvice    vol(   0 ): 3.508E+14  Parms: VV      M1      
 Compute Stats, Diag. #    225  SItaux    vol(   0 ): 3.513E+14  Parms: UU      U1      
 Compute Stats, Diag. #    226  SItauy    vol(   0 ): 3.508E+14  Parms: VV      U1      
 cg2d: Sum(rhs),rhsMax =   4.05729515401472E+01  2.92257510899709E-01
 Compute Stats, Diag. #    214  SIarea    vol(   0 ): 3.580E+14  Parms: SM      M1      
 Compute Stats, Diag. #    217  SIheff    vol(   0 ): 3.580E+14  Parms: SM      M1      
 Compute Stats, Diag. #    219  SIhsnow   vol(   0 ): 3.580E+14  Parms: SM      M1      
 Compute Stats, Diag. #     83  sIceLoad  vol(   0 ): 3.580E+14  Parms: SM      U1      
 Compute Stats, Diag. #    223  SIuice    vol(   0 ): 3.513E+14  Parms: UU      M1      
 Compute Stats, Diag. #    224  SIvice    vol(   0 ): 3.508E+14  Parms: VV      M1      
 Compute Stats, Diag. #    225  SItaux    vol(   0 ): 3.513E+14  Parms: UU      U1      
 Compute Stats, Diag. #    226  SItauy    vol(   0 ): 3.508E+14  Parms: VV      U1      
 cg2d: Sum(rhs),rhsMax =   4.03984883837337E+01  2.92242286809709E-01
 Compute Stats, Diag. #    214  SIarea    vol(   0 ): 3.580E+14  Parms: SM      M1      
 Compute Stats, Diag. #    217  SIheff    vol(   0 ): 3.580E+14  Parms: SM      M1      
 Compute Stats, Diag. #    219  SIhsnow   vol(   0 ): 3.580E+14  Parms: SM      M1      
 Compute Stats, Diag. #     83  sIceLoad  vol(   0 ): 3.580E+14  Parms: SM      U1      
 Compute Stats, Diag. #    223  SIuice    vol(   0 ): 3.513E+14  Parms: UU      M1      
 Compute Stats, Diag. #    224  SIvice    vol(   0 ): 3.508E+14  Parms: VV      M1      
 Compute Stats, Diag. #    225  SItaux    vol(   0 ): 3.513E+14  Parms: UU      U1      
 Compute Stats, Diag. #    226  SItauy    vol(   0 ): 3.508E+14  Parms: VV      U1      
 cg2d: Sum(rhs),rhsMax =   4.02223860776597E+01  2.92227079462227E-01
 Compute Stats, Diag. #    214  SIarea    vol(   0 ): 3.580E+14  Parms: SM      M1      
 Compute Stats, Diag. #    217  SIheff    vol(   0 ): 3.580E+14  Parms: SM      M1      
 Compute Stats, Diag. #    219  SIhsnow   vol(   0 ): 3.580E+14  Parms: SM      M1      
 Compute Stats, Diag. #     83  sIceLoad  vol(   0 ): 3.580E+14  Parms: SM      U1      
 Compute Stats, Diag. #    223  SIuice    vol(   0 ): 3.513E+14  Parms: UU      M1      
 Compute Stats, Diag. #    224  SIvice    vol(   0 ): 3.508E+14  Parms: VV      M1      
 Compute Stats, Diag. #    225  SItaux    vol(   0 ): 3.513E+14  Parms: UU      U1      
 Compute Stats, Diag. #    226  SItauy    vol(   0 ): 3.508E+14  Parms: VV      U1      
 cg2d: Sum(rhs),rhsMax =   4.00419103516956E+01  2.92212252803740E-01
(PID.TID 0000.0001)      cg2d_init_res =   1.20870770076484E-01
(PID.TID 0000.0001)      cg2d_iters(min,last) =      -1      27
(PID.TID 0000.0001)      cg2d_last_res =   2.44141205140034E-05
(PID.TID 0000.0001) // =======================================================
(PID.TID 0000.0001) // Begin MONITOR dynamic field statistics
(PID.TID 0000.0001) // =======================================================
(PID.TID 0000.0001) %MON time_tsnumber                =                   240
(PID.TID 0000.0001) %MON time_secondsf                =   2.1600000000000E+05
(PID.TID 0000.0001) %MON dynstat_eta_max              =   1.0687672512224E+00
(PID.TID 0000.0001) %MON dynstat_eta_min              =  -2.2472271684649E+00
(PID.TID 0000.0001) %MON dynstat_eta_mean             =  -1.2666535098006E-03
(PID.TID 0000.0001) %MON dynstat_eta_sd               =   6.5431180180026E-01
(PID.TID 0000.0001) %MON dynstat_eta_del2             =   6.5465592650894E-05
(PID.TID 0000.0001) %MON dynstat_uvel_max             =   8.7549993964614E-01
(PID.TID 0000.0001) %MON dynstat_uvel_min             =  -9.2125809969927E-01
(PID.TID 0000.0001) %MON dynstat_uvel_mean            =   1.2007506628495E-03
(PID.TID 0000.0001) %MON dynstat_uvel_sd              =   2.0173604289920E-02
(PID.TID 0000.0001) %MON dynstat_uvel_del2            =   8.8011093578559E-06
(PID.TID 0000.0001) %MON dynstat_vvel_max             =   1.2357978384908E+00
(PID.TID 0000.0001) %MON dynstat_vvel_min             =  -8.5729064095226E-01
(PID.TID 0000.0001) %MON dynstat_vvel_mean            =   1.0648477526403E-03
(PID.TID 0000.0001) %MON dynstat_vvel_sd              =   2.0920136049773E-02
(PID.TID 0000.0001) %MON dynstat_vvel_del2            =   9.1093656085179E-06
(PID.TID 0000.0001) %MON dynstat_wvel_max             =   8.3255925510572E-04
(PID.TID 0000.0001) %MON dynstat_wvel_min             =  -8.3773182755904E-04
(PID.TID 0000.0001) %MON dynstat_wvel_mean            =   3.7896444612386E-08
(PID.TID 0000.0001) %MON dynstat_wvel_sd              =   2.2343757454081E-05
(PID.TID 0000.0001) %MON dynstat_wvel_del2            =   2.1567164891855E-08
(PID.TID 0000.0001) %MON dynstat_theta_max            =   3.2447878600634E+01
(PID.TID 0000.0001) %MON dynstat_theta_min            =  -2.0414672801099E+00
(PID.TID 0000.0001) %MON dynstat_theta_mean           =   3.5904436741226E+00
(PID.TID 0000.0001) %MON dynstat_theta_sd             =   4.4361922936012E+00
(PID.TID 0000.0001) %MON dynstat_theta_del2           =   9.8524261508501E-05
(PID.TID 0000.0001) %MON dynstat_salt_max             =   4.0711547958430E+01
(PID.TID 0000.0001) %MON dynstat_salt_min             =   1.2618805654428E+01
(PID.TID 0000.0001) %MON dynstat_salt_mean            =   3.4725584271667E+01
(PID.TID 0000.0001) %MON dynstat_salt_sd              =   3.7701490644687E-01
(PID.TID 0000.0001) %MON dynstat_salt_del2            =   3.2652860598349E-05
(PID.TID 0000.0001) %MON dynstat_sst_max              =   3.2447878600634E+01
(PID.TID 0000.0001) %MON dynstat_sst_min              =  -1.8221069256961E+00
(PID.TID 0000.0001) %MON dynstat_sst_mean             =   1.8482697234288E+01
(PID.TID 0000.0001) %MON dynstat_sst_sd               =   1.0155336412436E+01
(PID.TID 0000.0001) %MON dynstat_sst_del2             =   8.2355844310672E-04
(PID.TID 0000.0001) %MON dynstat_sss_max              =   3.9157861988580E+01
(PID.TID 0000.0001) %MON dynstat_sss_min              =   1.2618805654428E+01
(PID.TID 0000.0001) %MON dynstat_sss_mean             =   3.4696102676688E+01
(PID.TID 0000.0001) %MON dynstat_sss_sd               =   1.1454156133995E+00
(PID.TID 0000.0001) %MON dynstat_sss_del2             =   9.3711620700929E-04
(PID.TID 0000.0001) %MON forcing_qnet_max             =   8.5235412597656E+02
(PID.TID 0000.0001) %MON forcing_qnet_min             =  -7.0957897949219E+02
(PID.TID 0000.0001) %MON forcing_qnet_mean            =   3.9098603337813E+01
(PID.TID 0000.0001) %MON forcing_qnet_sd              =   1.7224289936392E+02
(PID.TID 0000.0001) %MON forcing_qnet_del2            =   3.3726279201905E-01
(PID.TID 0000.0001) %MON forcing_qsw_max              =   0.0000000000000E+00
(PID.TID 0000.0001) %MON forcing_qsw_min              =  -1.1078022656555E+02
(PID.TID 0000.0001) %MON forcing_qsw_mean             =  -1.3591124848710E+01
(PID.TID 0000.0001) %MON forcing_qsw_sd               =   2.4854330235244E+01
(PID.TID 0000.0001) %MON forcing_qsw_del2             =   1.8505401588321E-02
(PID.TID 0000.0001) %MON forcing_empmr_max            =   9.3817821471021E-04
(PID.TID 0000.0001) %MON forcing_empmr_min            =  -1.5789633989334E-01
(PID.TID 0000.0001) %MON forcing_empmr_mean           =  -6.5273169980381E-06
(PID.TID 0000.0001) %MON forcing_empmr_sd             =   4.6392333693611E-04
(PID.TID 0000.0001) %MON forcing_empmr_del2           =   7.8554336227251E-06
(PID.TID 0000.0001) %MON forcing_fu_max               =   6.0541450977325E-01
(PID.TID 0000.0001) %MON forcing_fu_min               =  -8.1147950887680E-01
(PID.TID 0000.0001) %MON forcing_fu_mean              =   3.8540131676967E-03
(PID.TID 0000.0001) %MON forcing_fu_sd                =   9.0262263997603E-02
(PID.TID 0000.0001) %MON forcing_fu_del2              =   1.1576896091281E-04
(PID.TID 0000.0001) %MON forcing_fv_max               =   1.2447571158409E+00
(PID.TID 0000.0001) %MON forcing_fv_min               =  -7.6142323017120E-01
(PID.TID 0000.0001) %MON forcing_fv_mean              =  -8.2747546647985E-03
(PID.TID 0000.0001) %MON forcing_fv_sd                =   1.1192388878985E-01
(PID.TID 0000.0001) %MON forcing_fv_del2              =   1.4355480495662E-04
(PID.TID 0000.0001) %MON trAdv_CFL_u_max              =   1.6263180646759E-02
(PID.TID 0000.0001) %MON trAdv_CFL_v_max              =   2.1444119100197E-02
(PID.TID 0000.0001) %MON trAdv_CFL_w_max              =   2.8274249624186E-02
(PID.TID 0000.0001) %MON advcfl_uvel_max              =   1.7058298205651E-02
(PID.TID 0000.0001) %MON advcfl_vvel_max              =   2.1936529004253E-02
(PID.TID 0000.0001) %MON advcfl_wvel_max              =   2.8434794418375E-02
(PID.TID 0000.0001) %MON advcfl_W_hf_max              =   2.8633086456671E-02
(PID.TID 0000.0001) %MON pe_b_mean                    =   5.6315709670372E-04
(PID.TID 0000.0001) %MON ke_max                       =   7.6352347068800E-01
(PID.TID 0000.0001) %MON ke_mean                      =   4.0851548997113E-04
(PID.TID 0000.0001) %MON ke_vol                       =   1.3349974214159E+18
(PID.TID 0000.0001) %MON vort_r_min                   =  -2.3641949424428E-05
(PID.TID 0000.0001) %MON vort_r_max                   =   3.5367652319040E-05
(PID.TID 0000.0001) %MON vort_a_mean                  =  -1.9727864647440E-05
(PID.TID 0000.0001) %MON vort_a_sd                    =   7.4542990243816E-05
(PID.TID 0000.0001) %MON vort_p_mean                  =  -2.1760537752082E-05
(PID.TID 0000.0001) %MON vort_p_sd                    =   9.7247191935758E-05
(PID.TID 0000.0001) %MON surfExpan_theta_mean         =  -1.4868696315841E-07
(PID.TID 0000.0001) %MON surfExpan_salt_mean          =  -2.6600379663677E-08
(PID.TID 0000.0001) // =======================================================
(PID.TID 0000.0001) // End MONITOR dynamic field statistics
(PID.TID 0000.0001) // =======================================================
(PID.TID 0000.0001) // =======================================================
(PID.TID 0000.0001) // Begin MONITOR SEAICE statistics
(PID.TID 0000.0001) // =======================================================
(PID.TID 0000.0001) %MON seaice_tsnumber              =                   240
(PID.TID 0000.0001) %MON seaice_time_sec              =   2.1600000000000E+05
(PID.TID 0000.0001) %MON seaice_uice_max              =   4.0000000000000E-01
(PID.TID 0000.0001) %MON seaice_uice_min              =  -4.0000000000000E-01
(PID.TID 0000.0001) %MON seaice_uice_mean             =  -8.3054598624025E-03
(PID.TID 0000.0001) %MON seaice_uice_sd               =   1.9802383574176E-01
(PID.TID 0000.0001) %MON seaice_uice_del2             =   2.2931571122150E-04
(PID.TID 0000.0001) %MON seaice_vice_max              =   4.0000000000000E-01
(PID.TID 0000.0001) %MON seaice_vice_min              =  -4.0000000000000E-01
(PID.TID 0000.0001) %MON seaice_vice_mean             =  -2.1960776359499E-02
(PID.TID 0000.0001) %MON seaice_vice_sd               =   2.1302038025672E-01
(PID.TID 0000.0001) %MON seaice_vice_del2             =   2.3932563818061E-04
(PID.TID 0000.0001) %MON seaice_area_max              =   1.0000000000000E+00
(PID.TID 0000.0001) %MON seaice_area_min              =   0.0000000000000E+00
(PID.TID 0000.0001) %MON seaice_area_mean             =   6.8528422171194E-02
(PID.TID 0000.0001) %MON seaice_area_sd               =   2.3454235974935E-01
(PID.TID 0000.0001) %MON seaice_area_del2             =   4.3881520136738E-04
(PID.TID 0000.0001) %MON seaice_heff_max              =   2.5177074377192E+01
(PID.TID 0000.0001) %MON seaice_heff_min              =   0.0000000000000E+00
(PID.TID 0000.0001) %MON seaice_heff_mean             =   2.1545690264895E-01
(PID.TID 0000.0001) %MON seaice_heff_sd               =   1.0697066412923E+00
(PID.TID 0000.0001) %MON seaice_heff_del2             =   3.8952361705611E-03
(PID.TID 0000.0001) %MON seaice_hsnow_max             =   8.3155871189083E+00
(PID.TID 0000.0001) %MON seaice_hsnow_min             =   0.0000000000000E+00
(PID.TID 0000.0001) %MON seaice_hsnow_mean            =   2.4414284996320E-02
(PID.TID 0000.0001) %MON seaice_hsnow_sd              =   1.5730720722740E-01
(PID.TID 0000.0001) %MON seaice_hsnow_del2            =   1.2503169364380E-03
(PID.TID 0000.0001) // =======================================================
(PID.TID 0000.0001) // End MONITOR SEAICE statistics
(PID.TID 0000.0001) // =======================================================
 Computing Diagnostic #     86  oceQnet      Counter:       4   Parms: SM      U1      
 Computing Diagnostic #     87  oceQsw       Counter:       4   Parms: SM      U1      
 Computing Diagnostic #     84  oceFWflx     Counter:       4   Parms: SM      U1      
 Computing Diagnostic #     85  oceSflux     Counter:       4   Parms: SM      U1      
 Computing Diagnostic #     80  oceTAUX      Counter:       4   Parms: UU      U1      
           Vector  Mate for  oceTAUX      Diagnostic #     81  oceTAUY  exists 
 Computing Diagnostic #     81  oceTAUY      Counter:       4   Parms: VV      U1      
           Vector  Mate for  oceTAUY      Diagnostic #     80  oceTAUX  exists 
 Computing Diagnostic #     26  THETA        Counter:       4   Parms: SMR     MR      
 Computing Diagnostic #     27  SALT         Counter:       4   Parms: SMR     MR      
 Computing Diagnostic #     30  UVEL         Counter:       4   Parms: UUR     MR      
           Vector  Mate for  UVEL         Diagnostic #     31  VVEL     exists 
 Computing Diagnostic #     31  VVEL         Counter:       4   Parms: VVR     MR      
           Vector  Mate for  VVEL         Diagnostic #     30  UVEL     exists 
 Computing Diagnostic #    214  SIarea       Counter:       4   Parms: SM      M1      
 Computing Diagnostic #    217  SIheff       Counter:       4   Parms: SM      M1      
 Computing Diagnostic #    219  SIhsnow      Counter:       4   Parms: SM      M1      
 Computing Diagnostic #     83  sIceLoad     Counter:       4   Parms: SM      U1      
 Computing Diagnostic #    223  SIuice       Counter:       4   Parms: UU      M1      
           Vector  Mate for  SIuice       Diagnostic #    224  SIvice   exists 
 Computing Diagnostic #    224  SIvice       Counter:       4   Parms: VV      M1      
           Vector  Mate for  SIvice       Diagnostic #    223  SIuice   exists 
 Computing Diagnostic #    225  SItaux       Counter:       4   Parms: UU      U1      
           Vector  Mate for  SItaux       Diagnostic #    226  SItauy   exists 
 Computing Diagnostic #    226  SItauy       Counter:       4   Parms: VV      U1      
           Vector  Mate for  SItauy       Diagnostic #    225  SItaux   exists 
 Computing Diagnostic #    285  SIareaN      Counter:       4   Parms: SM      MX      
 Computing Diagnostic #    284  SIheffN      Counter:       4   Parms: SM      MX      
 Computing Diagnostic #    286  SIhsnowN     Counter:       4   Parms: SM      MX      
 Compute Stats, Diag. #    214  SIarea    vol(   0 ): 3.580E+14  Parms: SM      M1      
 Compute Stats, Diag. #    217  SIheff    vol(   0 ): 3.580E+14  Parms: SM      M1      
 Compute Stats, Diag. #    219  SIhsnow   vol(   0 ): 3.580E+14  Parms: SM      M1      
 Compute Stats, Diag. #     83  sIceLoad  vol(   0 ): 3.580E+14  Parms: SM      U1      
 Compute Stats, Diag. #    223  SIuice    vol(   0 ): 3.513E+14  Parms: UU      M1      
 Compute Stats, Diag. #    224  SIvice    vol(   0 ): 3.508E+14  Parms: VV      M1      
 Compute Stats, Diag. #    225  SItaux    vol(   0 ): 3.513E+14  Parms: UU      U1      
 Compute Stats, Diag. #    226  SItauy    vol(   0 ): 3.508E+14  Parms: VV      U1      
 cg2d: Sum(rhs),rhsMax =   3.98613256203168E+01  2.92197468958927E-01
 Compute Stats, Diag. #    214  SIarea    vol(   0 ): 3.580E+14  Parms: SM      M1      
 Compute Stats, Diag. #    217  SIheff    vol(   0 ): 3.580E+14  Parms: SM      M1      
 Compute Stats, Diag. #    219  SIhsnow   vol(   0 ): 3.580E+14  Parms: SM      M1      
 Compute Stats, Diag. #     83  sIceLoad  vol(   0 ): 3.580E+14  Parms: SM      U1      
 Compute Stats, Diag. #    223  SIuice    vol(   0 ): 3.513E+14  Parms: UU      M1      
 Compute Stats, Diag. #    224  SIvice    vol(   0 ): 3.508E+14  Parms: VV      M1      
 Compute Stats, Diag. #    225  SItaux    vol(   0 ): 3.513E+14  Parms: UU      U1      
 Compute Stats, Diag. #    226  SItauy    vol(   0 ): 3.508E+14  Parms: VV      U1      
 cg2d: Sum(rhs),rhsMax =   3.96809870164801E+01  2.92184811021134E-01
 Compute Stats, Diag. #    214  SIarea    vol(   0 ): 3.580E+14  Parms: SM      M1      
 Compute Stats, Diag. #    217  SIheff    vol(   0 ): 3.580E+14  Parms: SM      M1      
 Compute Stats, Diag. #    219  SIhsnow   vol(   0 ): 3.580E+14  Parms: SM      M1      
 Compute Stats, Diag. #     83  sIceLoad  vol(   0 ): 3.580E+14  Parms: SM      U1      
 Compute Stats, Diag. #    223  SIuice    vol(   0 ): 3.513E+14  Parms: UU      M1      
 Compute Stats, Diag. #    224  SIvice    vol(   0 ): 3.508E+14  Parms: VV      M1      
 Compute Stats, Diag. #    225  SItaux    vol(   0 ): 3.513E+14  Parms: UU      U1      
 Compute Stats, Diag. #    226  SItauy    vol(   0 ): 3.508E+14  Parms: VV      U1      
 cg2d: Sum(rhs),rhsMax =   3.95016812152051E+01  2.92171512381659E-01
 Compute Stats, Diag. #    214  SIarea    vol(   0 ): 3.580E+14  Parms: SM      M1      
 Compute Stats, Diag. #    217  SIheff    vol(   0 ): 3.580E+14  Parms: SM      M1      
 Compute Stats, Diag. #    219  SIhsnow   vol(   0 ): 3.580E+14  Parms: SM      M1      
 Compute Stats, Diag. #     83  sIceLoad  vol(   0 ): 3.580E+14  Parms: SM      U1      
 Compute Stats, Diag. #    223  SIuice    vol(   0 ): 3.513E+14  Parms: UU      M1      
 Compute Stats, Diag. #    224  SIvice    vol(   0 ): 3.508E+14  Parms: VV      M1      
 Compute Stats, Diag. #    225  SItaux    vol(   0 ): 3.513E+14  Parms: UU      U1      
 Compute Stats, Diag. #    226  SItauy    vol(   0 ): 3.508E+14  Parms: VV      U1      
 cg2d: Sum(rhs),rhsMax =   3.93215679588658E+01  2.92160502772405E-01
 Computing Diagnostic #     86  oceQnet      Counter:       4   Parms: SM      U1      
 Computing Diagnostic #     87  oceQsw       Counter:       4   Parms: SM      U1      
 Computing Diagnostic #     84  oceFWflx     Counter:       4   Parms: SM      U1      
 Computing Diagnostic #     85  oceSflux     Counter:       4   Parms: SM      U1      
 Computing Diagnostic #     80  oceTAUX      Counter:       4   Parms: UU      U1      
           Vector  Mate for  oceTAUX      Diagnostic #     81  oceTAUY  exists 
 Computing Diagnostic #     81  oceTAUY      Counter:       4   Parms: VV      U1      
           Vector  Mate for  oceTAUY      Diagnostic #     80  oceTAUX  exists 
 Computing Diagnostic #     26  THETA        Counter:       4   Parms: SMR     MR      
 Computing Diagnostic #     27  SALT         Counter:       4   Parms: SMR     MR      
 Computing Diagnostic #     30  UVEL         Counter:       4   Parms: UUR     MR      
           Vector  Mate for  UVEL         Diagnostic #     31  VVEL     exists 
 Computing Diagnostic #     31  VVEL         Counter:       4   Parms: VVR     MR      
           Vector  Mate for  VVEL         Diagnostic #     30  UVEL     exists 
 Computing Diagnostic #    214  SIarea       Counter:       4   Parms: SM      M1      
 Computing Diagnostic #    217  SIheff       Counter:       4   Parms: SM      M1      
 Computing Diagnostic #    219  SIhsnow      Counter:       4   Parms: SM      M1      
 Computing Diagnostic #     83  sIceLoad     Counter:       4   Parms: SM      U1      
 Computing Diagnostic #    223  SIuice       Counter:       4   Parms: UU      M1      
           Vector  Mate for  SIuice       Diagnostic #    224  SIvice   exists 
 Computing Diagnostic #    224  SIvice       Counter:       4   Parms: VV      M1      
           Vector  Mate for  SIvice       Diagnostic #    223  SIuice   exists 
 Computing Diagnostic #    225  SItaux       Counter:       4   Parms: UU      U1      
           Vector  Mate for  SItaux       Diagnostic #    226  SItauy   exists 
 Computing Diagnostic #    226  SItauy       Counter:       4   Parms: VV      U1      
           Vector  Mate for  SItauy       Diagnostic #    225  SItaux   exists 
 Computing Diagnostic #    285  SIareaN      Counter:       4   Parms: SM      MX      
 Computing Diagnostic #    284  SIheffN      Counter:       4   Parms: SM      MX      
 Computing Diagnostic #    286  SIhsnowN     Counter:       4   Parms: SM      MX      
 Compute Stats, Diag. #    214  SIarea    vol(   0 ): 3.580E+14  Parms: SM      M1      
 Compute Stats, Diag. #    217  SIheff    vol(   0 ): 3.580E+14  Parms: SM      M1      
 Compute Stats, Diag. #    219  SIhsnow   vol(   0 ): 3.580E+14  Parms: SM      M1      
 Compute Stats, Diag. #     83  sIceLoad  vol(   0 ): 3.580E+14  Parms: SM      U1      
 Compute Stats, Diag. #    223  SIuice    vol(   0 ): 3.513E+14  Parms: UU      M1      
 Compute Stats, Diag. #    224  SIvice    vol(   0 ): 3.508E+14  Parms: VV      M1      
 Compute Stats, Diag. #    225  SItaux    vol(   0 ): 3.513E+14  Parms: UU      U1      
 Compute Stats, Diag. #    226  SItauy    vol(   0 ): 3.508E+14  Parms: VV      U1      
 cg2d: Sum(rhs),rhsMax =   3.91390379237186E+01  2.92149734688384E-01
 Compute Stats, Diag. #    214  SIarea    vol(   0 ): 3.580E+14  Parms: SM      M1      
 Compute Stats, Diag. #    217  SIheff    vol(   0 ): 3.580E+14  Parms: SM      M1      
 Compute Stats, Diag. #    219  SIhsnow   vol(   0 ): 3.580E+14  Parms: SM      M1      
 Compute Stats, Diag. #     83  sIceLoad  vol(   0 ): 3.580E+14  Parms: SM      U1      
 Compute Stats, Diag. #    223  SIuice    vol(   0 ): 3.513E+14  Parms: UU      M1      
 Compute Stats, Diag. #    224  SIvice    vol(   0 ): 3.508E+14  Parms: VV      M1      
 Compute Stats, Diag. #    225  SItaux    vol(   0 ): 3.513E+14  Parms: UU      U1      
 Compute Stats, Diag. #    226  SItauy    vol(   0 ): 3.508E+14  Parms: VV      U1      
 cg2d: Sum(rhs),rhsMax =   3.89651729007163E+01  2.92140498447619E-01
 Compute Stats, Diag. #    214  SIarea    vol(   0 ): 3.580E+14  Parms: SM      M1      
 Compute Stats, Diag. #    217  SIheff    vol(   0 ): 3.580E+14  Parms: SM      M1      
 Compute Stats, Diag. #    219  SIhsnow   vol(   0 ): 3.580E+14  Parms: SM      M1      
 Compute Stats, Diag. #     83  sIceLoad  vol(   0 ): 3.580E+14  Parms: SM      U1      
 Compute Stats, Diag. #    223  SIuice    vol(   0 ): 3.513E+14  Parms: UU      M1      
 Compute Stats, Diag. #    224  SIvice    vol(   0 ): 3.508E+14  Parms: VV      M1      
 Compute Stats, Diag. #    225  SItaux    vol(   0 ): 3.513E+14  Parms: UU      U1      
 Compute Stats, Diag. #    226  SItauy    vol(   0 ): 3.508E+14  Parms: VV      U1      
 cg2d: Sum(rhs),rhsMax =   3.87919025181184E+01  2.92133352010877E-01
 Compute Stats, Diag. #    214  SIarea    vol(   0 ): 3.580E+14  Parms: SM      M1      
 Compute Stats, Diag. #    217  SIheff    vol(   0 ): 3.580E+14  Parms: SM      M1      
 Compute Stats, Diag. #    219  SIhsnow   vol(   0 ): 3.580E+14  Parms: SM      M1      
 Compute Stats, Diag. #     83  sIceLoad  vol(   0 ): 3.580E+14  Parms: SM      U1      
 Compute Stats, Diag. #    223  SIuice    vol(   0 ): 3.513E+14  Parms: UU      M1      
 Compute Stats, Diag. #    224  SIvice    vol(   0 ): 3.508E+14  Parms: VV      M1      
 Compute Stats, Diag. #    225  SItaux    vol(   0 ): 3.513E+14  Parms: UU      U1      
 Compute Stats, Diag. #    226  SItauy    vol(   0 ): 3.508E+14  Parms: VV      U1      
 cg2d: Sum(rhs),rhsMax =   3.86174479234900E+01  2.92128176294155E-01
(PID.TID 0000.0001)      cg2d_init_res =   1.11219187230939E-01
(PID.TID 0000.0001)      cg2d_iters(min,last) =      -1      27
(PID.TID 0000.0001)      cg2d_last_res =   2.72380367123345E-05
(PID.TID 0000.0001) // =======================================================
(PID.TID 0000.0001) // Begin MONITOR dynamic field statistics
(PID.TID 0000.0001) // =======================================================
(PID.TID 0000.0001) %MON time_tsnumber                =                   248
(PID.TID 0000.0001) %MON time_secondsf                =   2.2320000000000E+05
(PID.TID 0000.0001) %MON dynstat_eta_max              =   1.0667269998428E+00
(PID.TID 0000.0001) %MON dynstat_eta_min              =  -2.1778072488846E+00
(PID.TID 0000.0001) %MON dynstat_eta_mean             =  -1.2215932137651E-03
(PID.TID 0000.0001) %MON dynstat_eta_sd               =   6.5301765248570E-01
(PID.TID 0000.0001) %MON dynstat_eta_del2             =   6.5328192528684E-05
(PID.TID 0000.0001) %MON dynstat_uvel_max             =   8.8832460454473E-01
(PID.TID 0000.0001) %MON dynstat_uvel_min             =  -9.0826639912420E-01
(PID.TID 0000.0001) %MON dynstat_uvel_mean            =   1.2582626096513E-03
(PID.TID 0000.0001) %MON dynstat_uvel_sd              =   2.0116752437589E-02
(PID.TID 0000.0001) %MON dynstat_uvel_del2            =   8.7184081627924E-06
(PID.TID 0000.0001) %MON dynstat_vvel_max             =   1.2260689803533E+00
(PID.TID 0000.0001) %MON dynstat_vvel_min             =  -8.6231394463982E-01
(PID.TID 0000.0001) %MON dynstat_vvel_mean            =   1.0018898100763E-03
(PID.TID 0000.0001) %MON dynstat_vvel_sd              =   2.0919307264658E-02
(PID.TID 0000.0001) %MON dynstat_vvel_del2            =   9.0528697769656E-06
(PID.TID 0000.0001) %MON dynstat_wvel_max             =   7.7300334842759E-04
(PID.TID 0000.0001) %MON dynstat_wvel_min             =  -8.2979623045670E-04
(PID.TID 0000.0001) %MON dynstat_wvel_mean            =   3.8965067348427E-08
(PID.TID 0000.0001) %MON dynstat_wvel_sd              =   2.2012132360064E-05
(PID.TID 0000.0001) %MON dynstat_wvel_del2            =   2.0910063824302E-08
(PID.TID 0000.0001) %MON dynstat_theta_max            =   3.2421236590021E+01
(PID.TID 0000.0001) %MON dynstat_theta_min            =  -2.0414442632975E+00
(PID.TID 0000.0001) %MON dynstat_theta_mean           =   3.5904278566752E+00
(PID.TID 0000.0001) %MON dynstat_theta_sd             =   4.4361366714683E+00
(PID.TID 0000.0001) %MON dynstat_theta_del2           =   9.8339099649432E-05
(PID.TID 0000.0001) %MON dynstat_salt_max             =   4.0711548370634E+01
(PID.TID 0000.0001) %MON dynstat_salt_min             =   1.2791063846858E+01
(PID.TID 0000.0001) %MON dynstat_salt_mean            =   3.4725583682600E+01
(PID.TID 0000.0001) %MON dynstat_salt_sd              =   3.7701497584235E-01
(PID.TID 0000.0001) %MON dynstat_salt_del2            =   3.3566643441535E-05
(PID.TID 0000.0001) %MON dynstat_sst_max              =   3.2421236590021E+01
(PID.TID 0000.0001) %MON dynstat_sst_min              =  -1.8203574378276E+00
(PID.TID 0000.0001) %MON dynstat_sst_mean             =   1.8479565065152E+01
(PID.TID 0000.0001) %MON dynstat_sst_sd               =   1.0156093821425E+01
(PID.TID 0000.0001) %MON dynstat_sst_del2             =   8.2214412815975E-04
(PID.TID 0000.0001) %MON dynstat_sss_max              =   3.9154140902599E+01
(PID.TID 0000.0001) %MON dynstat_sss_min              =   1.2791063846858E+01
(PID.TID 0000.0001) %MON dynstat_sss_mean             =   3.4696359253721E+01
(PID.TID 0000.0001) %MON dynstat_sss_sd               =   1.1461920460556E+00
(PID.TID 0000.0001) %MON dynstat_sss_del2             =   9.8677583131078E-04
(PID.TID 0000.0001) %MON forcing_qnet_max             =   7.8362246335069E+02
(PID.TID 0000.0001) %MON forcing_qnet_min             =  -8.0782818603516E+02
(PID.TID 0000.0001) %MON forcing_qnet_mean            =   2.8416851667135E+01
(PID.TID 0000.0001) %MON forcing_qnet_sd              =   1.7318837669621E+02
(PID.TID 0000.0001) %MON forcing_qnet_del2            =   3.2291701431191E-01
(PID.TID 0000.0001) %MON forcing_qsw_max              =   0.0000000000000E+00
(PID.TID 0000.0001) %MON forcing_qsw_min              =  -9.9781083094478E+01
(PID.TID 0000.0001) %MON forcing_qsw_mean             =  -1.4460645055214E+01
(PID.TID 0000.0001) %MON forcing_qsw_sd               =   2.3927095619760E+01
(PID.TID 0000.0001) %MON forcing_qsw_del2             =   1.9594191172488E-02
(PID.TID 0000.0001) %MON forcing_empmr_max            =   1.1518012033775E-03
(PID.TID 0000.0001) %MON forcing_empmr_min            =  -1.5915165841579E-01
(PID.TID 0000.0001) %MON forcing_empmr_mean           =  -6.3095490256150E-06
(PID.TID 0000.0001) %MON forcing_empmr_sd             =   4.2211125312040E-04
(PID.TID 0000.0001) %MON forcing_empmr_del2           =   7.0632171130915E-06
(PID.TID 0000.0001) %MON forcing_fu_max               =   6.2837019562721E-01
(PID.TID 0000.0001) %MON forcing_fu_min               =  -7.1906009316444E-01
(PID.TID 0000.0001) %MON forcing_fu_mean              =   3.7133668528002E-03
(PID.TID 0000.0001) %MON forcing_fu_sd                =   8.9316210399439E-02
(PID.TID 0000.0001) %MON forcing_fu_del2              =   1.1217792531574E-04
(PID.TID 0000.0001) %MON forcing_fv_max               =   1.2212067842484E+00
(PID.TID 0000.0001) %MON forcing_fv_min               =  -7.6537239551544E-01
(PID.TID 0000.0001) %MON forcing_fv_mean              =  -7.7308252047502E-03
(PID.TID 0000.0001) %MON forcing_fv_sd                =   1.1167328609950E-01
(PID.TID 0000.0001) %MON forcing_fv_del2              =   1.4289153255328E-04
(PID.TID 0000.0001) %MON trAdv_CFL_u_max              =   1.7143959389979E-02
(PID.TID 0000.0001) %MON trAdv_CFL_v_max              =   2.1270320952823E-02
(PID.TID 0000.0001) %MON trAdv_CFL_w_max              =   3.0421744782919E-02
(PID.TID 0000.0001) %MON advcfl_uvel_max              =   1.7994813661461E-02
(PID.TID 0000.0001) %MON advcfl_vvel_max              =   2.1763832975773E-02
(PID.TID 0000.0001) %MON advcfl_wvel_max              =   3.0707681156534E-02
(PID.TID 0000.0001) %MON advcfl_W_hf_max              =   3.0920386884501E-02
(PID.TID 0000.0001) %MON pe_b_mean                    =   5.6093144107823E-04
(PID.TID 0000.0001) %MON ke_max                       =   7.4917745364278E-01
(PID.TID 0000.0001) %MON ke_mean                      =   4.0739988130324E-04
(PID.TID 0000.0001) %MON ke_vol                       =   1.3349974376163E+18
(PID.TID 0000.0001) %MON vort_r_min                   =  -2.3445882635344E-05
(PID.TID 0000.0001) %MON vort_r_max                   =   3.5073396408089E-05
(PID.TID 0000.0001) %MON vort_a_mean                  =  -1.9727864647440E-05
(PID.TID 0000.0001) %MON vort_a_sd                    =   7.4542978109771E-05
(PID.TID 0000.0001) %MON vort_p_mean                  =  -2.1760537673547E-05
(PID.TID 0000.0001) %MON vort_p_sd                    =   9.7247138233625E-05
(PID.TID 0000.0001) %MON surfExpan_theta_mean         =  -1.0263366088719E-07
(PID.TID 0000.0001) %MON surfExpan_salt_mean          =  -2.5415674024393E-08
(PID.TID 0000.0001) // =======================================================
(PID.TID 0000.0001) // End MONITOR dynamic field statistics
(PID.TID 0000.0001) // =======================================================
(PID.TID 0000.0001) // =======================================================
(PID.TID 0000.0001) // Begin MONITOR SEAICE statistics
(PID.TID 0000.0001) // =======================================================
(PID.TID 0000.0001) %MON seaice_tsnumber              =                   248
(PID.TID 0000.0001) %MON seaice_time_sec              =   2.2320000000000E+05
(PID.TID 0000.0001) %MON seaice_uice_max              =   4.0000000000000E-01
(PID.TID 0000.0001) %MON seaice_uice_min              =  -4.0000000000000E-01
(PID.TID 0000.0001) %MON seaice_uice_mean             =  -8.3054598624025E-03
(PID.TID 0000.0001) %MON seaice_uice_sd               =   1.9802383574176E-01
(PID.TID 0000.0001) %MON seaice_uice_del2             =   2.2931571122150E-04
(PID.TID 0000.0001) %MON seaice_vice_max              =   4.0000000000000E-01
(PID.TID 0000.0001) %MON seaice_vice_min              =  -4.0000000000000E-01
(PID.TID 0000.0001) %MON seaice_vice_mean             =  -2.1960776359499E-02
(PID.TID 0000.0001) %MON seaice_vice_sd               =   2.1302038025672E-01
(PID.TID 0000.0001) %MON seaice_vice_del2             =   2.3932563818061E-04
(PID.TID 0000.0001) %MON seaice_area_max              =   1.0000000000000E+00
(PID.TID 0000.0001) %MON seaice_area_min              =   0.0000000000000E+00
(PID.TID 0000.0001) %MON seaice_area_mean             =   6.8472373438116E-02
(PID.TID 0000.0001) %MON seaice_area_sd               =   2.3445310011057E-01
(PID.TID 0000.0001) %MON seaice_area_del2             =   4.3775972363801E-04
(PID.TID 0000.0001) %MON seaice_heff_max              =   2.5173385463422E+01
(PID.TID 0000.0001) %MON seaice_heff_min              =   0.0000000000000E+00
(PID.TID 0000.0001) %MON seaice_heff_mean             =   2.1539855366228E-01
(PID.TID 0000.0001) %MON seaice_heff_sd               =   1.0696380063858E+00
(PID.TID 0000.0001) %MON seaice_heff_del2             =   3.8943447048918E-03
(PID.TID 0000.0001) %MON seaice_hsnow_max             =   8.3143695370527E+00
(PID.TID 0000.0001) %MON seaice_hsnow_min             =   0.0000000000000E+00
(PID.TID 0000.0001) %MON seaice_hsnow_mean            =   2.4410782251331E-02
(PID.TID 0000.0001) %MON seaice_hsnow_sd              =   1.5728340773475E-01
(PID.TID 0000.0001) %MON seaice_hsnow_del2            =   1.2501407286456E-03
(PID.TID 0000.0001) // =======================================================
(PID.TID 0000.0001) // End MONITOR SEAICE statistics
(PID.TID 0000.0001) // =======================================================
 Computing Diagnostic #     86  oceQnet      Counter:       4   Parms: SM      U1      
 Computing Diagnostic #     87  oceQsw       Counter:       4   Parms: SM      U1      
 Computing Diagnostic #     84  oceFWflx     Counter:       4   Parms: SM      U1      
 Computing Diagnostic #     85  oceSflux     Counter:       4   Parms: SM      U1      
 Computing Diagnostic #     80  oceTAUX      Counter:       4   Parms: UU      U1      
           Vector  Mate for  oceTAUX      Diagnostic #     81  oceTAUY  exists 
 Computing Diagnostic #     81  oceTAUY      Counter:       4   Parms: VV      U1      
           Vector  Mate for  oceTAUY      Diagnostic #     80  oceTAUX  exists 
 Computing Diagnostic #     26  THETA        Counter:       4   Parms: SMR     MR      
 Computing Diagnostic #     27  SALT         Counter:       4   Parms: SMR     MR      
 Computing Diagnostic #     30  UVEL         Counter:       4   Parms: UUR     MR      
           Vector  Mate for  UVEL         Diagnostic #     31  VVEL     exists 
 Computing Diagnostic #     31  VVEL         Counter:       4   Parms: VVR     MR      
           Vector  Mate for  VVEL         Diagnostic #     30  UVEL     exists 
 Computing Diagnostic #    214  SIarea       Counter:       4   Parms: SM      M1      
 Computing Diagnostic #    217  SIheff       Counter:       4   Parms: SM      M1      
 Computing Diagnostic #    219  SIhsnow      Counter:       4   Parms: SM      M1      
 Computing Diagnostic #     83  sIceLoad     Counter:       4   Parms: SM      U1      
 Computing Diagnostic #    223  SIuice       Counter:       4   Parms: UU      M1      
           Vector  Mate for  SIuice       Diagnostic #    224  SIvice   exists 
 Computing Diagnostic #    224  SIvice       Counter:       4   Parms: VV      M1      
           Vector  Mate for  SIvice       Diagnostic #    223  SIuice   exists 
 Computing Diagnostic #    225  SItaux       Counter:       4   Parms: UU      U1      
           Vector  Mate for  SItaux       Diagnostic #    226  SItauy   exists 
 Computing Diagnostic #    226  SItauy       Counter:       4   Parms: VV      U1      
           Vector  Mate for  SItauy       Diagnostic #    225  SItaux   exists 
 Computing Diagnostic #    285  SIareaN      Counter:       4   Parms: SM      MX      
 Computing Diagnostic #    284  SIheffN      Counter:       4   Parms: SM      MX      
 Computing Diagnostic #    286  SIhsnowN     Counter:       4   Parms: SM      MX      
 Compute Stats, Diag. #    214  SIarea    vol(   0 ): 3.580E+14  Parms: SM      M1      
 Compute Stats, Diag. #    217  SIheff    vol(   0 ): 3.580E+14  Parms: SM      M1      
 Compute Stats, Diag. #    219  SIhsnow   vol(   0 ): 3.580E+14  Parms: SM      M1      
 Compute Stats, Diag. #     83  sIceLoad  vol(   0 ): 3.580E+14  Parms: SM      U1      
 Compute Stats, Diag. #    223  SIuice    vol(   0 ): 3.513E+14  Parms: UU      M1      
 Compute Stats, Diag. #    224  SIvice    vol(   0 ): 3.508E+14  Parms: VV      M1      
 Compute Stats, Diag. #    225  SItaux    vol(   0 ): 3.513E+14  Parms: UU      U1      
 Compute Stats, Diag. #    226  SItauy    vol(   0 ): 3.508E+14  Parms: VV      U1      
 cg2d: Sum(rhs),rhsMax =   3.84410823313008E+01  2.92124998212073E-01
 Compute Stats, Diag. #    214  SIarea    vol(   0 ): 3.580E+14  Parms: SM      M1      
 Compute Stats, Diag. #    217  SIheff    vol(   0 ): 3.580E+14  Parms: SM      M1      
 Compute Stats, Diag. #    219  SIhsnow   vol(   0 ): 3.580E+14  Parms: SM      M1      
 Compute Stats, Diag. #     83  sIceLoad  vol(   0 ): 3.580E+14  Parms: SM      U1      
 Compute Stats, Diag. #    223  SIuice    vol(   0 ): 3.513E+14  Parms: UU      M1      
 Compute Stats, Diag. #    224  SIvice    vol(   0 ): 3.508E+14  Parms: VV      M1      
 Compute Stats, Diag. #    225  SItaux    vol(   0 ): 3.513E+14  Parms: UU      U1      
 Compute Stats, Diag. #    226  SItauy    vol(   0 ): 3.508E+14  Parms: VV      U1      
 cg2d: Sum(rhs),rhsMax =   3.82684988393468E+01  2.92124294346800E-01
 Compute Stats, Diag. #    214  SIarea    vol(   0 ): 3.580E+14  Parms: SM      M1      
 Compute Stats, Diag. #    217  SIheff    vol(   0 ): 3.580E+14  Parms: SM      M1      
 Compute Stats, Diag. #    219  SIhsnow   vol(   0 ): 3.580E+14  Parms: SM      M1      
 Compute Stats, Diag. #     83  sIceLoad  vol(   0 ): 3.580E+14  Parms: SM      U1      
 Compute Stats, Diag. #    223  SIuice    vol(   0 ): 3.513E+14  Parms: UU      M1      
 Compute Stats, Diag. #    224  SIvice    vol(   0 ): 3.508E+14  Parms: VV      M1      
 Compute Stats, Diag. #    225  SItaux    vol(   0 ): 3.513E+14  Parms: UU      U1      
 Compute Stats, Diag. #    226  SItauy    vol(   0 ): 3.508E+14  Parms: VV      U1      
 cg2d: Sum(rhs),rhsMax =   3.80958717468826E+01  2.92126159317112E-01
 Compute Stats, Diag. #    214  SIarea    vol(   0 ): 3.580E+14  Parms: SM      M1      
 Compute Stats, Diag. #    217  SIheff    vol(   0 ): 3.580E+14  Parms: SM      M1      
 Compute Stats, Diag. #    219  SIhsnow   vol(   0 ): 3.580E+14  Parms: SM      M1      
 Compute Stats, Diag. #     83  sIceLoad  vol(   0 ): 3.580E+14  Parms: SM      U1      
 Compute Stats, Diag. #    223  SIuice    vol(   0 ): 3.513E+14  Parms: UU      M1      
 Compute Stats, Diag. #    224  SIvice    vol(   0 ): 3.508E+14  Parms: VV      M1      
 Compute Stats, Diag. #    225  SItaux    vol(   0 ): 3.513E+14  Parms: UU      U1      
 Compute Stats, Diag. #    226  SItauy    vol(   0 ): 3.508E+14  Parms: VV      U1      
 cg2d: Sum(rhs),rhsMax =   3.79249679304912E+01  2.92131443231057E-01
 Computing Diagnostic #     86  oceQnet      Counter:       4   Parms: SM      U1      
 Computing Diagnostic #     87  oceQsw       Counter:       4   Parms: SM      U1      
 Computing Diagnostic #     84  oceFWflx     Counter:       4   Parms: SM      U1      
 Computing Diagnostic #     85  oceSflux     Counter:       4   Parms: SM      U1      
 Computing Diagnostic #     80  oceTAUX      Counter:       4   Parms: UU      U1      
           Vector  Mate for  oceTAUX      Diagnostic #     81  oceTAUY  exists 
 Computing Diagnostic #     81  oceTAUY      Counter:       4   Parms: VV      U1      
           Vector  Mate for  oceTAUY      Diagnostic #     80  oceTAUX  exists 
 Computing Diagnostic #     26  THETA        Counter:       4   Parms: SMR     MR      
 Computing Diagnostic #     27  SALT         Counter:       4   Parms: SMR     MR      
 Computing Diagnostic #     30  UVEL         Counter:       4   Parms: UUR     MR      
           Vector  Mate for  UVEL         Diagnostic #     31  VVEL     exists 
 Computing Diagnostic #     31  VVEL         Counter:       4   Parms: VVR     MR      
           Vector  Mate for  VVEL         Diagnostic #     30  UVEL     exists 
 Computing Diagnostic #    214  SIarea       Counter:       4   Parms: SM      M1      
 Computing Diagnostic #    217  SIheff       Counter:       4   Parms: SM      M1      
 Computing Diagnostic #    219  SIhsnow      Counter:       4   Parms: SM      M1      
 Computing Diagnostic #     83  sIceLoad     Counter:       4   Parms: SM      U1      
 Computing Diagnostic #    223  SIuice       Counter:       4   Parms: UU      M1      
           Vector  Mate for  SIuice       Diagnostic #    224  SIvice   exists 
 Computing Diagnostic #    224  SIvice       Counter:       4   Parms: VV      M1      
           Vector  Mate for  SIvice       Diagnostic #    223  SIuice   exists 
 Computing Diagnostic #    225  SItaux       Counter:       4   Parms: UU      U1      
           Vector  Mate for  SItaux       Diagnostic #    226  SItauy   exists 
 Computing Diagnostic #    226  SItauy       Counter:       4   Parms: VV      U1      
           Vector  Mate for  SItauy       Diagnostic #    225  SItaux   exists 
 Computing Diagnostic #    285  SIareaN      Counter:       4   Parms: SM      MX      
 Computing Diagnostic #    284  SIheffN      Counter:       4   Parms: SM      MX      
 Computing Diagnostic #    286  SIhsnowN     Counter:       4   Parms: SM      MX      
 Compute Stats, Diag. #    214  SIarea    vol(   0 ): 3.580E+14  Parms: SM      M1      
 Compute Stats, Diag. #    217  SIheff    vol(   0 ): 3.580E+14  Parms: SM      M1      
 Compute Stats, Diag. #    219  SIhsnow   vol(   0 ): 3.580E+14  Parms: SM      M1      
 Compute Stats, Diag. #     83  sIceLoad  vol(   0 ): 3.580E+14  Parms: SM      U1      
 Compute Stats, Diag. #    223  SIuice    vol(   0 ): 3.513E+14  Parms: UU      M1      
 Compute Stats, Diag. #    224  SIvice    vol(   0 ): 3.508E+14  Parms: VV      M1      
 Compute Stats, Diag. #    225  SItaux    vol(   0 ): 3.513E+14  Parms: UU      U1      
 Compute Stats, Diag. #    226  SItauy    vol(   0 ): 3.508E+14  Parms: VV      U1      
 cg2d: Sum(rhs),rhsMax =   3.77507114811659E+01  2.92139812707327E-01
 Compute Stats, Diag. #    214  SIarea    vol(   0 ): 3.580E+14  Parms: SM      M1      
 Compute Stats, Diag. #    217  SIheff    vol(   0 ): 3.580E+14  Parms: SM      M1      
 Compute Stats, Diag. #    219  SIhsnow   vol(   0 ): 3.580E+14  Parms: SM      M1      
 Compute Stats, Diag. #     83  sIceLoad  vol(   0 ): 3.580E+14  Parms: SM      U1      
 Compute Stats, Diag. #    223  SIuice    vol(   0 ): 3.513E+14  Parms: UU      M1      
 Compute Stats, Diag. #    224  SIvice    vol(   0 ): 3.508E+14  Parms: VV      M1      
 Compute Stats, Diag. #    225  SItaux    vol(   0 ): 3.513E+14  Parms: UU      U1      
 Compute Stats, Diag. #    226  SItauy    vol(   0 ): 3.508E+14  Parms: VV      U1      
 cg2d: Sum(rhs),rhsMax =   3.75779120503234E+01  2.92151571042251E-01
 Compute Stats, Diag. #    214  SIarea    vol(   0 ): 3.580E+14  Parms: SM      M1      
 Compute Stats, Diag. #    217  SIheff    vol(   0 ): 3.580E+14  Parms: SM      M1      
 Compute Stats, Diag. #    219  SIhsnow   vol(   0 ): 3.580E+14  Parms: SM      M1      
 Compute Stats, Diag. #     83  sIceLoad  vol(   0 ): 3.580E+14  Parms: SM      U1      
 Compute Stats, Diag. #    223  SIuice    vol(   0 ): 3.513E+14  Parms: UU      M1      
 Compute Stats, Diag. #    224  SIvice    vol(   0 ): 3.508E+14  Parms: VV      M1      
 Compute Stats, Diag. #    225  SItaux    vol(   0 ): 3.513E+14  Parms: UU      U1      
 Compute Stats, Diag. #    226  SItauy    vol(   0 ): 3.508E+14  Parms: VV      U1      
 cg2d: Sum(rhs),rhsMax =   3.74090304931422E+01  2.92166611811680E-01
 Compute Stats, Diag. #    214  SIarea    vol(   0 ): 3.580E+14  Parms: SM      M1      
 Compute Stats, Diag. #    217  SIheff    vol(   0 ): 3.580E+14  Parms: SM      M1      
 Compute Stats, Diag. #    219  SIhsnow   vol(   0 ): 3.580E+14  Parms: SM      M1      
 Compute Stats, Diag. #     83  sIceLoad  vol(   0 ): 3.580E+14  Parms: SM      U1      
 Compute Stats, Diag. #    223  SIuice    vol(   0 ): 3.513E+14  Parms: UU      M1      
 Compute Stats, Diag. #    224  SIvice    vol(   0 ): 3.508E+14  Parms: VV      M1      
 Compute Stats, Diag. #    225  SItaux    vol(   0 ): 3.513E+14  Parms: UU      U1      
 Compute Stats, Diag. #    226  SItauy    vol(   0 ): 3.508E+14  Parms: VV      U1      
 cg2d: Sum(rhs),rhsMax =   3.72317530525939E+01  2.92185013596895E-01
(PID.TID 0000.0001)      cg2d_init_res =   1.09524269516971E-01
(PID.TID 0000.0001)      cg2d_iters(min,last) =      -1      28
(PID.TID 0000.0001)      cg2d_last_res =   2.13959020417701E-05
(PID.TID 0000.0001) // =======================================================
(PID.TID 0000.0001) // Begin MONITOR dynamic field statistics
(PID.TID 0000.0001) // =======================================================
(PID.TID 0000.0001) %MON time_tsnumber                =                   256
(PID.TID 0000.0001) %MON time_secondsf                =   2.3040000000000E+05
(PID.TID 0000.0001) %MON dynstat_eta_max              =   1.0646937141535E+00
(PID.TID 0000.0001) %MON dynstat_eta_min              =  -2.1001790307906E+00
(PID.TID 0000.0001) %MON dynstat_eta_mean             =  -1.1777592593831E-03
(PID.TID 0000.0001) %MON dynstat_eta_sd               =   6.5163248201397E-01
(PID.TID 0000.0001) %MON dynstat_eta_del2             =   6.5213370342608E-05
(PID.TID 0000.0001) %MON dynstat_uvel_max             =   9.0168785675813E-01
(PID.TID 0000.0001) %MON dynstat_uvel_min             =  -8.9870018875186E-01
(PID.TID 0000.0001) %MON dynstat_uvel_mean            =   1.3113202535704E-03
(PID.TID 0000.0001) %MON dynstat_uvel_sd              =   2.0072465637409E-02
(PID.TID 0000.0001) %MON dynstat_uvel_del2            =   8.6539488827447E-06
(PID.TID 0000.0001) %MON dynstat_vvel_max             =   1.2198667160054E+00
(PID.TID 0000.0001) %MON dynstat_vvel_min             =  -8.6701679036714E-01
(PID.TID 0000.0001) %MON dynstat_vvel_mean            =   9.5899400203051E-04
(PID.TID 0000.0001) %MON dynstat_vvel_sd              =   2.0896614619500E-02
(PID.TID 0000.0001) %MON dynstat_vvel_del2            =   9.0075122465841E-06
(PID.TID 0000.0001) %MON dynstat_wvel_max             =   6.8169485388021E-04
(PID.TID 0000.0001) %MON dynstat_wvel_min             =  -8.2626028328817E-04
(PID.TID 0000.0001) %MON dynstat_wvel_mean            =   3.6716768883603E-08
(PID.TID 0000.0001) %MON dynstat_wvel_sd              =   2.1717988140516E-05
(PID.TID 0000.0001) %MON dynstat_wvel_del2            =   2.0287478492486E-08
(PID.TID 0000.0001) %MON dynstat_theta_max            =   3.2411751994551E+01
(PID.TID 0000.0001) %MON dynstat_theta_min            =  -2.0414218932714E+00
(PID.TID 0000.0001) %MON dynstat_theta_mean           =   3.5904161092436E+00
(PID.TID 0000.0001) %MON dynstat_theta_sd             =   4.4360920616164E+00
(PID.TID 0000.0001) %MON dynstat_theta_del2           =   9.8163951912510E-05
(PID.TID 0000.0001) %MON dynstat_salt_max             =   4.0711548455873E+01
(PID.TID 0000.0001) %MON dynstat_salt_min             =   1.2915969516569E+01
(PID.TID 0000.0001) %MON dynstat_salt_mean            =   3.4725583135005E+01
(PID.TID 0000.0001) %MON dynstat_salt_sd              =   3.7701456997398E-01
(PID.TID 0000.0001) %MON dynstat_salt_del2            =   3.4068532187028E-05
(PID.TID 0000.0001) %MON dynstat_sst_max              =   3.2399687505846E+01
(PID.TID 0000.0001) %MON dynstat_sst_min              =  -1.8186649385811E+00
(PID.TID 0000.0001) %MON dynstat_sst_mean             =   1.8477960087091E+01
(PID.TID 0000.0001) %MON dynstat_sst_sd               =   1.0156643373802E+01
(PID.TID 0000.0001) %MON dynstat_sst_del2             =   8.2092128417222E-04
(PID.TID 0000.0001) %MON dynstat_sss_max              =   3.9150635103045E+01
(PID.TID 0000.0001) %MON dynstat_sss_min              =   1.2915969516569E+01
(PID.TID 0000.0001) %MON dynstat_sss_mean             =   3.4696598572287E+01
(PID.TID 0000.0001) %MON dynstat_sss_sd               =   1.1468258186744E+00
(PID.TID 0000.0001) %MON dynstat_sss_del2             =   1.0146482859612E-03
(PID.TID 0000.0001) %MON forcing_qnet_max             =   7.3879742469858E+02
(PID.TID 0000.0001) %MON forcing_qnet_min             =  -1.0030937448236E+03
(PID.TID 0000.0001) %MON forcing_qnet_mean            =   2.2046137106601E+01
(PID.TID 0000.0001) %MON forcing_qnet_sd              =   1.8743276572662E+02
(PID.TID 0000.0001) %MON forcing_qnet_del2            =   3.1509162238390E-01
(PID.TID 0000.0001) %MON forcing_qsw_max              =   0.0000000000000E+00
(PID.TID 0000.0001) %MON forcing_qsw_min              =  -1.0457629739373E+02
(PID.TID 0000.0001) %MON forcing_qsw_mean             =  -1.5573837258956E+01
(PID.TID 0000.0001) %MON forcing_qsw_sd               =   2.7168791326367E+01
(PID.TID 0000.0001) %MON forcing_qsw_del2             =   2.0093606274829E-02
(PID.TID 0000.0001) %MON forcing_empmr_max            =   1.3663737336174E-03
(PID.TID 0000.0001) %MON forcing_empmr_min            =  -1.2136354297400E-01
(PID.TID 0000.0001) %MON forcing_empmr_mean           =  -6.4116436980462E-06
(PID.TID 0000.0001) %MON forcing_empmr_sd             =   3.2591848396547E-04
(PID.TID 0000.0001) %MON forcing_empmr_del2           =   4.9394008086883E-06
(PID.TID 0000.0001) %MON forcing_fu_max               =   6.1344233155251E-01
(PID.TID 0000.0001) %MON forcing_fu_min               =  -6.9744601845741E-01
(PID.TID 0000.0001) %MON forcing_fu_mean              =   3.7230425537659E-03
(PID.TID 0000.0001) %MON forcing_fu_sd                =   8.8433616883129E-02
(PID.TID 0000.0001) %MON forcing_fu_del2              =   1.0871591738087E-04
(PID.TID 0000.0001) %MON forcing_fv_max               =   1.2106246948242E+00
(PID.TID 0000.0001) %MON forcing_fv_min               =  -7.5033721327782E-01
(PID.TID 0000.0001) %MON forcing_fv_mean              =  -6.8011471723539E-03
(PID.TID 0000.0001) %MON forcing_fv_sd                =   1.1174758651462E-01
(PID.TID 0000.0001) %MON forcing_fv_del2              =   1.4240557140772E-04
(PID.TID 0000.0001) %MON trAdv_CFL_u_max              =   1.7524529881177E-02
(PID.TID 0000.0001) %MON trAdv_CFL_v_max              =   2.1147612614963E-02
(PID.TID 0000.0001) %MON trAdv_CFL_w_max              =   3.1743156731468E-02
(PID.TID 0000.0001) %MON advcfl_uvel_max              =   1.8379465814795E-02
(PID.TID 0000.0001) %MON advcfl_vvel_max              =   2.1653737175697E-02
(PID.TID 0000.0001) %MON advcfl_wvel_max              =   3.2023634507128E-02
(PID.TID 0000.0001) %MON advcfl_W_hf_max              =   3.2241741397261E-02
(PID.TID 0000.0001) %MON pe_b_mean                    =   5.5855415098410E-04
(PID.TID 0000.0001) %MON ke_max                       =   7.4061697071432E-01
(PID.TID 0000.0001) %MON ke_mean                      =   4.0610933206373E-04
(PID.TID 0000.0001) %MON ke_vol                       =   1.3349974532775E+18
(PID.TID 0000.0001) %MON vort_r_min                   =  -2.3292150968203E-05
(PID.TID 0000.0001) %MON vort_r_max                   =   3.4860107011389E-05
(PID.TID 0000.0001) %MON vort_a_mean                  =  -1.9727864647440E-05
(PID.TID 0000.0001) %MON vort_a_sd                    =   7.4542968887054E-05
(PID.TID 0000.0001) %MON vort_p_mean                  =  -2.1760537590386E-05
(PID.TID 0000.0001) %MON vort_p_sd                    =   9.7247074456097E-05
(PID.TID 0000.0001) %MON surfExpan_theta_mean         =  -5.5338464864784E-08
(PID.TID 0000.0001) %MON surfExpan_salt_mean          =  -2.5804273195385E-08
(PID.TID 0000.0001) // =======================================================
(PID.TID 0000.0001) // End MONITOR dynamic field statistics
(PID.TID 0000.0001) // =======================================================
(PID.TID 0000.0001) // =======================================================
(PID.TID 0000.0001) // Begin MONITOR SEAICE statistics
(PID.TID 0000.0001) // =======================================================
(PID.TID 0000.0001) %MON seaice_tsnumber              =                   256
(PID.TID 0000.0001) %MON seaice_time_sec              =   2.3040000000000E+05
(PID.TID 0000.0001) %MON seaice_uice_max              =   4.0000000000000E-01
(PID.TID 0000.0001) %MON seaice_uice_min              =  -4.0000000000000E-01
(PID.TID 0000.0001) %MON seaice_uice_mean             =  -8.3054598624025E-03
(PID.TID 0000.0001) %MON seaice_uice_sd               =   1.9802383574176E-01
(PID.TID 0000.0001) %MON seaice_uice_del2             =   2.2931571122150E-04
(PID.TID 0000.0001) %MON seaice_vice_max              =   4.0000000000000E-01
(PID.TID 0000.0001) %MON seaice_vice_min              =  -4.0000000000000E-01
(PID.TID 0000.0001) %MON seaice_vice_mean             =  -2.1960776359499E-02
(PID.TID 0000.0001) %MON seaice_vice_sd               =   2.1302038025672E-01
(PID.TID 0000.0001) %MON seaice_vice_del2             =   2.3932563818061E-04
(PID.TID 0000.0001) %MON seaice_area_max              =   1.0000000000000E+00
(PID.TID 0000.0001) %MON seaice_area_min              =   0.0000000000000E+00
(PID.TID 0000.0001) %MON seaice_area_mean             =   6.8418013328499E-02
(PID.TID 0000.0001) %MON seaice_area_sd               =   2.3436720161198E-01
(PID.TID 0000.0001) %MON seaice_area_del2             =   4.3674470351066E-04
(PID.TID 0000.0001) %MON seaice_heff_max              =   2.5169704116648E+01
(PID.TID 0000.0001) %MON seaice_heff_min              =   0.0000000000000E+00
(PID.TID 0000.0001) %MON seaice_heff_mean             =   2.1534073564293E-01
(PID.TID 0000.0001) %MON seaice_heff_sd               =   1.0695691728232E+00
(PID.TID 0000.0001) %MON seaice_heff_del2             =   3.8934137759150E-03
(PID.TID 0000.0001) %MON seaice_hsnow_max             =   8.3131547811499E+00
(PID.TID 0000.0001) %MON seaice_hsnow_min             =   0.0000000000000E+00
(PID.TID 0000.0001) %MON seaice_hsnow_mean            =   2.4405283386245E-02
(PID.TID 0000.0001) %MON seaice_hsnow_sd              =   1.5725671142083E-01
(PID.TID 0000.0001) %MON seaice_hsnow_del2            =   1.2499553303817E-03
(PID.TID 0000.0001) // =======================================================
(PID.TID 0000.0001) // End MONITOR SEAICE statistics
(PID.TID 0000.0001) // =======================================================
 Computing Diagnostic #     86  oceQnet      Counter:       4   Parms: SM      U1      
 Computing Diagnostic #     87  oceQsw       Counter:       4   Parms: SM      U1      
 Computing Diagnostic #     84  oceFWflx     Counter:       4   Parms: SM      U1      
 Computing Diagnostic #     85  oceSflux     Counter:       4   Parms: SM      U1      
 Computing Diagnostic #     80  oceTAUX      Counter:       4   Parms: UU      U1      
           Vector  Mate for  oceTAUX      Diagnostic #     81  oceTAUY  exists 
 Computing Diagnostic #     81  oceTAUY      Counter:       4   Parms: VV      U1      
           Vector  Mate for  oceTAUY      Diagnostic #     80  oceTAUX  exists 
 Computing Diagnostic #     26  THETA        Counter:       4   Parms: SMR     MR      
 Computing Diagnostic #     27  SALT         Counter:       4   Parms: SMR     MR      
 Computing Diagnostic #     30  UVEL         Counter:       4   Parms: UUR     MR      
           Vector  Mate for  UVEL         Diagnostic #     31  VVEL     exists 
 Computing Diagnostic #     31  VVEL         Counter:       4   Parms: VVR     MR      
           Vector  Mate for  VVEL         Diagnostic #     30  UVEL     exists 
 Computing Diagnostic #    214  SIarea       Counter:       4   Parms: SM      M1      
 Computing Diagnostic #    217  SIheff       Counter:       4   Parms: SM      M1      
 Computing Diagnostic #    219  SIhsnow      Counter:       4   Parms: SM      M1      
 Computing Diagnostic #     83  sIceLoad     Counter:       4   Parms: SM      U1      
 Computing Diagnostic #    223  SIuice       Counter:       4   Parms: UU      M1      
           Vector  Mate for  SIuice       Diagnostic #    224  SIvice   exists 
 Computing Diagnostic #    224  SIvice       Counter:       4   Parms: VV      M1      
           Vector  Mate for  SIvice       Diagnostic #    223  SIuice   exists 
 Computing Diagnostic #    225  SItaux       Counter:       4   Parms: UU      U1      
           Vector  Mate for  SItaux       Diagnostic #    226  SItauy   exists 
 Computing Diagnostic #    226  SItauy       Counter:       4   Parms: VV      U1      
           Vector  Mate for  SItauy       Diagnostic #    225  SItaux   exists 
 Computing Diagnostic #    285  SIareaN      Counter:       4   Parms: SM      MX      
 Computing Diagnostic #    284  SIheffN      Counter:       4   Parms: SM      MX      
 Computing Diagnostic #    286  SIhsnowN     Counter:       4   Parms: SM      MX      
 Compute Stats, Diag. #    214  SIarea    vol(   0 ): 3.580E+14  Parms: SM      M1      
 Compute Stats, Diag. #    217  SIheff    vol(   0 ): 3.580E+14  Parms: SM      M1      
 Compute Stats, Diag. #    219  SIhsnow   vol(   0 ): 3.580E+14  Parms: SM      M1      
 Compute Stats, Diag. #     83  sIceLoad  vol(   0 ): 3.580E+14  Parms: SM      U1      
 Compute Stats, Diag. #    223  SIuice    vol(   0 ): 3.513E+14  Parms: UU      M1      
 Compute Stats, Diag. #    224  SIvice    vol(   0 ): 3.508E+14  Parms: VV      M1      
 Compute Stats, Diag. #    225  SItaux    vol(   0 ): 3.513E+14  Parms: UU      U1      
 Compute Stats, Diag. #    226  SItauy    vol(   0 ): 3.508E+14  Parms: VV      U1      
 cg2d: Sum(rhs),rhsMax =   3.70488327662987E+01  2.92206644848984E-01
 Compute Stats, Diag. #    214  SIarea    vol(   0 ): 3.580E+14  Parms: SM      M1      
 Compute Stats, Diag. #    217  SIheff    vol(   0 ): 3.580E+14  Parms: SM      M1      
 Compute Stats, Diag. #    219  SIhsnow   vol(   0 ): 3.580E+14  Parms: SM      M1      
 Compute Stats, Diag. #     83  sIceLoad  vol(   0 ): 3.580E+14  Parms: SM      U1      
 Compute Stats, Diag. #    223  SIuice    vol(   0 ): 3.513E+14  Parms: UU      M1      
 Compute Stats, Diag. #    224  SIvice    vol(   0 ): 3.508E+14  Parms: VV      M1      
 Compute Stats, Diag. #    225  SItaux    vol(   0 ): 3.513E+14  Parms: UU      U1      
 Compute Stats, Diag. #    226  SItauy    vol(   0 ): 3.508E+14  Parms: VV      U1      
 cg2d: Sum(rhs),rhsMax =   3.68713499350417E+01  2.92231215867482E-01
 Compute Stats, Diag. #    214  SIarea    vol(   0 ): 3.580E+14  Parms: SM      M1      
 Compute Stats, Diag. #    217  SIheff    vol(   0 ): 3.580E+14  Parms: SM      M1      
 Compute Stats, Diag. #    219  SIhsnow   vol(   0 ): 3.580E+14  Parms: SM      M1      
 Compute Stats, Diag. #     83  sIceLoad  vol(   0 ): 3.580E+14  Parms: SM      U1      
 Compute Stats, Diag. #    223  SIuice    vol(   0 ): 3.513E+14  Parms: UU      M1      
 Compute Stats, Diag. #    224  SIvice    vol(   0 ): 3.508E+14  Parms: VV      M1      
 Compute Stats, Diag. #    225  SItaux    vol(   0 ): 3.513E+14  Parms: UU      U1      
 Compute Stats, Diag. #    226  SItauy    vol(   0 ): 3.508E+14  Parms: VV      U1      
 cg2d: Sum(rhs),rhsMax =   3.66924746456036E+01  2.92258642680706E-01
 Compute Stats, Diag. #    214  SIarea    vol(   0 ): 3.580E+14  Parms: SM      M1      
 Compute Stats, Diag. #    217  SIheff    vol(   0 ): 3.580E+14  Parms: SM      M1      
 Compute Stats, Diag. #    219  SIhsnow   vol(   0 ): 3.580E+14  Parms: SM      M1      
 Compute Stats, Diag. #     83  sIceLoad  vol(   0 ): 3.580E+14  Parms: SM      U1      
 Compute Stats, Diag. #    223  SIuice    vol(   0 ): 3.513E+14  Parms: UU      M1      
 Compute Stats, Diag. #    224  SIvice    vol(   0 ): 3.508E+14  Parms: VV      M1      
 Compute Stats, Diag. #    225  SItaux    vol(   0 ): 3.513E+14  Parms: UU      U1      
 Compute Stats, Diag. #    226  SItauy    vol(   0 ): 3.508E+14  Parms: VV      U1      
 cg2d: Sum(rhs),rhsMax =   3.65127629125604E+01  2.92288460709205E-01
 Computing Diagnostic #     86  oceQnet      Counter:       4   Parms: SM      U1      
 Computing Diagnostic #     87  oceQsw       Counter:       4   Parms: SM      U1      
 Computing Diagnostic #     84  oceFWflx     Counter:       4   Parms: SM      U1      
 Computing Diagnostic #     85  oceSflux     Counter:       4   Parms: SM      U1      
 Computing Diagnostic #     80  oceTAUX      Counter:       4   Parms: UU      U1      
           Vector  Mate for  oceTAUX      Diagnostic #     81  oceTAUY  exists 
 Computing Diagnostic #     81  oceTAUY      Counter:       4   Parms: VV      U1      
           Vector  Mate for  oceTAUY      Diagnostic #     80  oceTAUX  exists 
 Computing Diagnostic #     26  THETA        Counter:       4   Parms: SMR     MR      
 Computing Diagnostic #     27  SALT         Counter:       4   Parms: SMR     MR      
 Computing Diagnostic #     30  UVEL         Counter:       4   Parms: UUR     MR      
           Vector  Mate for  UVEL         Diagnostic #     31  VVEL     exists 
 Computing Diagnostic #     31  VVEL         Counter:       4   Parms: VVR     MR      
           Vector  Mate for  VVEL         Diagnostic #     30  UVEL     exists 
 Computing Diagnostic #    214  SIarea       Counter:       4   Parms: SM      M1      
 Computing Diagnostic #    217  SIheff       Counter:       4   Parms: SM      M1      
 Computing Diagnostic #    219  SIhsnow      Counter:       4   Parms: SM      M1      
 Computing Diagnostic #     83  sIceLoad     Counter:       4   Parms: SM      U1      
 Computing Diagnostic #    223  SIuice       Counter:       4   Parms: UU      M1      
           Vector  Mate for  SIuice       Diagnostic #    224  SIvice   exists 
 Computing Diagnostic #    224  SIvice       Counter:       4   Parms: VV      M1      
           Vector  Mate for  SIvice       Diagnostic #    223  SIuice   exists 
 Computing Diagnostic #    225  SItaux       Counter:       4   Parms: UU      U1      
           Vector  Mate for  SItaux       Diagnostic #    226  SItauy   exists 
 Computing Diagnostic #    226  SItauy       Counter:       4   Parms: VV      U1      
           Vector  Mate for  SItauy       Diagnostic #    225  SItaux   exists 
 Computing Diagnostic #    285  SIareaN      Counter:       4   Parms: SM      MX      
 Computing Diagnostic #    284  SIheffN      Counter:       4   Parms: SM      MX      
 Computing Diagnostic #    286  SIhsnowN     Counter:       4   Parms: SM      MX      
 Compute Stats, Diag. #    214  SIarea    vol(   0 ): 3.580E+14  Parms: SM      M1      
 Compute Stats, Diag. #    217  SIheff    vol(   0 ): 3.580E+14  Parms: SM      M1      
 Compute Stats, Diag. #    219  SIhsnow   vol(   0 ): 3.580E+14  Parms: SM      M1      
 Compute Stats, Diag. #     83  sIceLoad  vol(   0 ): 3.580E+14  Parms: SM      U1      
 Compute Stats, Diag. #    223  SIuice    vol(   0 ): 3.513E+14  Parms: UU      M1      
 Compute Stats, Diag. #    224  SIvice    vol(   0 ): 3.508E+14  Parms: VV      M1      
 Compute Stats, Diag. #    225  SItaux    vol(   0 ): 3.513E+14  Parms: UU      U1      
 Compute Stats, Diag. #    226  SItauy    vol(   0 ): 3.508E+14  Parms: VV      U1      
 cg2d: Sum(rhs),rhsMax =   3.63373137660511E+01  2.92320365599455E-01
 Compute Stats, Diag. #    214  SIarea    vol(   0 ): 3.580E+14  Parms: SM      M1      
 Compute Stats, Diag. #    217  SIheff    vol(   0 ): 3.580E+14  Parms: SM      M1      
 Compute Stats, Diag. #    219  SIhsnow   vol(   0 ): 3.580E+14  Parms: SM      M1      
 Compute Stats, Diag. #     83  sIceLoad  vol(   0 ): 3.580E+14  Parms: SM      U1      
 Compute Stats, Diag. #    223  SIuice    vol(   0 ): 3.513E+14  Parms: UU      M1      
 Compute Stats, Diag. #    224  SIvice    vol(   0 ): 3.508E+14  Parms: VV      M1      
 Compute Stats, Diag. #    225  SItaux    vol(   0 ): 3.513E+14  Parms: UU      U1      
 Compute Stats, Diag. #    226  SItauy    vol(   0 ): 3.508E+14  Parms: VV      U1      
 cg2d: Sum(rhs),rhsMax =   3.61552041681083E+01  2.92354311365083E-01
 Compute Stats, Diag. #    214  SIarea    vol(   0 ): 3.580E+14  Parms: SM      M1      
 Compute Stats, Diag. #    217  SIheff    vol(   0 ): 3.580E+14  Parms: SM      M1      
 Compute Stats, Diag. #    219  SIhsnow   vol(   0 ): 3.580E+14  Parms: SM      M1      
 Compute Stats, Diag. #     83  sIceLoad  vol(   0 ): 3.580E+14  Parms: SM      U1      
 Compute Stats, Diag. #    223  SIuice    vol(   0 ): 3.513E+14  Parms: UU      M1      
 Compute Stats, Diag. #    224  SIvice    vol(   0 ): 3.508E+14  Parms: VV      M1      
 Compute Stats, Diag. #    225  SItaux    vol(   0 ): 3.513E+14  Parms: UU      U1      
 Compute Stats, Diag. #    226  SItauy    vol(   0 ): 3.508E+14  Parms: VV      U1      
 cg2d: Sum(rhs),rhsMax =   3.59801348588602E+01  2.92388893593615E-01
 Compute Stats, Diag. #    214  SIarea    vol(   0 ): 3.580E+14  Parms: SM      M1      
 Compute Stats, Diag. #    217  SIheff    vol(   0 ): 3.580E+14  Parms: SM      M1      
 Compute Stats, Diag. #    219  SIhsnow   vol(   0 ): 3.580E+14  Parms: SM      M1      
 Compute Stats, Diag. #     83  sIceLoad  vol(   0 ): 3.580E+14  Parms: SM      U1      
 Compute Stats, Diag. #    223  SIuice    vol(   0 ): 3.513E+14  Parms: UU      M1      
 Compute Stats, Diag. #    224  SIvice    vol(   0 ): 3.508E+14  Parms: VV      M1      
 Compute Stats, Diag. #    225  SItaux    vol(   0 ): 3.513E+14  Parms: UU      U1      
 Compute Stats, Diag. #    226  SItauy    vol(   0 ): 3.508E+14  Parms: VV      U1      
 cg2d: Sum(rhs),rhsMax =   3.57997080000236E+01  2.92424513875136E-01
(PID.TID 0000.0001)      cg2d_init_res =   1.08420046608531E-01
(PID.TID 0000.0001)      cg2d_iters(min,last) =      -1      28
(PID.TID 0000.0001)      cg2d_last_res =   2.14745015426806E-05
(PID.TID 0000.0001) // =======================================================
(PID.TID 0000.0001) // Begin MONITOR dynamic field statistics
(PID.TID 0000.0001) // =======================================================
(PID.TID 0000.0001) %MON time_tsnumber                =                   264
(PID.TID 0000.0001) %MON time_secondsf                =   2.3760000000000E+05
(PID.TID 0000.0001) %MON dynstat_eta_max              =   1.0634090400160E+00
(PID.TID 0000.0001) %MON dynstat_eta_min              =  -2.0290200934321E+00
(PID.TID 0000.0001) %MON dynstat_eta_mean             =  -1.1324591007218E-03
(PID.TID 0000.0001) %MON dynstat_eta_sd               =   6.5032659576306E-01
(PID.TID 0000.0001) %MON dynstat_eta_del2             =   6.5038841463923E-05
(PID.TID 0000.0001) %MON dynstat_uvel_max             =   9.1433537085660E-01
(PID.TID 0000.0001) %MON dynstat_uvel_min             =  -8.8763273990879E-01
(PID.TID 0000.0001) %MON dynstat_uvel_mean            =   1.3541194933210E-03
(PID.TID 0000.0001) %MON dynstat_uvel_sd              =   2.0033178635710E-02
(PID.TID 0000.0001) %MON dynstat_uvel_del2            =   8.6008980484772E-06
(PID.TID 0000.0001) %MON dynstat_vvel_max             =   1.2139735109980E+00
(PID.TID 0000.0001) %MON dynstat_vvel_min             =  -8.7117536215592E-01
(PID.TID 0000.0001) %MON dynstat_vvel_mean            =   9.4892353148020E-04
(PID.TID 0000.0001) %MON dynstat_vvel_sd              =   2.0860574073345E-02
(PID.TID 0000.0001) %MON dynstat_vvel_del2            =   8.9612062050585E-06
(PID.TID 0000.0001) %MON dynstat_wvel_max             =   5.6229372973826E-04
(PID.TID 0000.0001) %MON dynstat_wvel_min             =  -8.1853282768114E-04
(PID.TID 0000.0001) %MON dynstat_wvel_mean            =   3.1910374529700E-08
(PID.TID 0000.0001) %MON dynstat_wvel_sd              =   2.1458477342424E-05
(PID.TID 0000.0001) %MON dynstat_wvel_del2            =   1.9725939615664E-08
(PID.TID 0000.0001) %MON dynstat_theta_max            =   3.2397953569178E+01
(PID.TID 0000.0001) %MON dynstat_theta_min            =  -2.0414025063087E+00
(PID.TID 0000.0001) %MON dynstat_theta_mean           =   3.5904079139908E+00
(PID.TID 0000.0001) %MON dynstat_theta_sd             =   4.4360606101088E+00
(PID.TID 0000.0001) %MON dynstat_theta_del2           =   9.8001987639578E-05
(PID.TID 0000.0001) %MON dynstat_salt_max             =   4.0711548038575E+01
(PID.TID 0000.0001) %MON dynstat_salt_min             =   1.2891814525101E+01
(PID.TID 0000.0001) %MON dynstat_salt_mean            =   3.4725582596180E+01
(PID.TID 0000.0001) %MON dynstat_salt_sd              =   3.7701387620075E-01
(PID.TID 0000.0001) %MON dynstat_salt_del2            =   3.4090885867405E-05
(PID.TID 0000.0001) %MON dynstat_sst_max              =   3.2383697844395E+01
(PID.TID 0000.0001) %MON dynstat_sst_min              =  -1.8169826935345E+00
(PID.TID 0000.0001) %MON dynstat_sst_mean             =   1.8477597039869E+01
(PID.TID 0000.0001) %MON dynstat_sst_sd               =   1.0157292473963E+01
(PID.TID 0000.0001) %MON dynstat_sst_del2             =   8.2013293490303E-04
(PID.TID 0000.0001) %MON dynstat_sss_max              =   3.9147317124752E+01
(PID.TID 0000.0001) %MON dynstat_sss_min              =   1.2891814525101E+01
(PID.TID 0000.0001) %MON dynstat_sss_mean             =   3.4696825125887E+01
(PID.TID 0000.0001) %MON dynstat_sss_sd               =   1.1473482176854E+00
(PID.TID 0000.0001) %MON dynstat_sss_del2             =   1.0180549379984E-03
(PID.TID 0000.0001) %MON forcing_qnet_max             =   7.4434627792432E+02
(PID.TID 0000.0001) %MON forcing_qnet_min             =  -1.1489363195866E+03
(PID.TID 0000.0001) %MON forcing_qnet_mean            =   1.2584018452676E+01
(PID.TID 0000.0001) %MON forcing_qnet_sd              =   1.9720522047161E+02
(PID.TID 0000.0001) %MON forcing_qnet_del2            =   3.1549518552582E-01
(PID.TID 0000.0001) %MON forcing_qsw_max              =   0.0000000000000E+00
(PID.TID 0000.0001) %MON forcing_qsw_min              =  -1.0971066124424E+02
(PID.TID 0000.0001) %MON forcing_qsw_mean             =  -1.7173619475991E+01
(PID.TID 0000.0001) %MON forcing_qsw_sd               =   2.9095624319957E+01
(PID.TID 0000.0001) %MON forcing_qsw_del2             =   2.0724461394615E-02
(PID.TID 0000.0001) %MON forcing_empmr_max            =   1.5612792922184E-03
(PID.TID 0000.0001) %MON forcing_empmr_min            =  -6.1746604740620E-02
(PID.TID 0000.0001) %MON forcing_empmr_mean           =  -6.5255496067835E-06
(PID.TID 0000.0001) %MON forcing_empmr_sd             =   2.4441233276301E-04
(PID.TID 0000.0001) %MON forcing_empmr_del2           =   2.9584359544784E-06
(PID.TID 0000.0001) %MON forcing_fu_max               =   5.9187823534012E-01
(PID.TID 0000.0001) %MON forcing_fu_min               =  -6.5116193890572E-01
(PID.TID 0000.0001) %MON forcing_fu_mean              =   4.0382914012272E-03
(PID.TID 0000.0001) %MON forcing_fu_sd                =   8.7726985763603E-02
(PID.TID 0000.0001) %MON forcing_fu_del2              =   1.0639622559064E-04
(PID.TID 0000.0001) %MON forcing_fv_max               =   1.1496104001999E+00
(PID.TID 0000.0001) %MON forcing_fv_min               =  -7.7799502015114E-01
(PID.TID 0000.0001) %MON forcing_fv_mean              =  -5.9869978243725E-03
(PID.TID 0000.0001) %MON forcing_fv_sd                =   1.1081722118091E-01
(PID.TID 0000.0001) %MON forcing_fv_del2              =   1.4011496291197E-04
(PID.TID 0000.0001) %MON trAdv_CFL_u_max              =   1.7435545402619E-02
(PID.TID 0000.0001) %MON trAdv_CFL_v_max              =   2.1030852548066E-02
(PID.TID 0000.0001) %MON trAdv_CFL_w_max              =   3.2107753434757E-02
(PID.TID 0000.0001) %MON advcfl_uvel_max              =   1.8252728803435E-02
(PID.TID 0000.0001) %MON advcfl_vvel_max              =   2.1549127458359E-02
(PID.TID 0000.0001) %MON advcfl_wvel_max              =   3.2390069654655E-02
(PID.TID 0000.0001) %MON advcfl_W_hf_max              =   3.2606270806640E-02
(PID.TID 0000.0001) %MON pe_b_mean                    =   5.5631754676311E-04
(PID.TID 0000.0001) %MON ke_max                       =   7.3246387691111E-01
(PID.TID 0000.0001) %MON ke_mean                      =   4.0466965393375E-04
(PID.TID 0000.0001) %MON ke_vol                       =   1.3349974694599E+18
(PID.TID 0000.0001) %MON vort_r_min                   =  -2.3137583307023E-05
(PID.TID 0000.0001) %MON vort_r_max                   =   3.4644572174649E-05
(PID.TID 0000.0001) %MON vort_a_mean                  =  -1.9727864647440E-05
(PID.TID 0000.0001) %MON vort_a_sd                    =   7.4542962753178E-05
(PID.TID 0000.0001) %MON vort_p_mean                  =  -2.1760537488152E-05
(PID.TID 0000.0001) %MON vort_p_sd                    =   9.7247002027001E-05
(PID.TID 0000.0001) %MON surfExpan_theta_mean         =   9.2986403630392E-09
(PID.TID 0000.0001) %MON surfExpan_salt_mean          =  -1.8161353271335E-08
(PID.TID 0000.0001) // =======================================================
(PID.TID 0000.0001) // End MONITOR dynamic field statistics
(PID.TID 0000.0001) // =======================================================
(PID.TID 0000.0001) // =======================================================
(PID.TID 0000.0001) // Begin MONITOR SEAICE statistics
(PID.TID 0000.0001) // =======================================================
(PID.TID 0000.0001) %MON seaice_tsnumber              =                   264
(PID.TID 0000.0001) %MON seaice_time_sec              =   2.3760000000000E+05
(PID.TID 0000.0001) %MON seaice_uice_max              =   4.0000000000000E-01
(PID.TID 0000.0001) %MON seaice_uice_min              =  -4.0000000000000E-01
(PID.TID 0000.0001) %MON seaice_uice_mean             =  -8.3054598624025E-03
(PID.TID 0000.0001) %MON seaice_uice_sd               =   1.9802383574176E-01
(PID.TID 0000.0001) %MON seaice_uice_del2             =   2.2931571122150E-04
(PID.TID 0000.0001) %MON seaice_vice_max              =   4.0000000000000E-01
(PID.TID 0000.0001) %MON seaice_vice_min              =  -4.0000000000000E-01
(PID.TID 0000.0001) %MON seaice_vice_mean             =  -2.1960776359499E-02
(PID.TID 0000.0001) %MON seaice_vice_sd               =   2.1302038025672E-01
(PID.TID 0000.0001) %MON seaice_vice_del2             =   2.3932563818061E-04
(PID.TID 0000.0001) %MON seaice_area_max              =   1.0000000000000E+00
(PID.TID 0000.0001) %MON seaice_area_min              =   0.0000000000000E+00
(PID.TID 0000.0001) %MON seaice_area_mean             =   6.8364305655159E-02
(PID.TID 0000.0001) %MON seaice_area_sd               =   2.3428303181957E-01
(PID.TID 0000.0001) %MON seaice_area_del2             =   4.3575267652671E-04
(PID.TID 0000.0001) %MON seaice_heff_max              =   2.5166030425113E+01
(PID.TID 0000.0001) %MON seaice_heff_min              =   0.0000000000000E+00
(PID.TID 0000.0001) %MON seaice_heff_mean             =   2.1528310445161E-01
(PID.TID 0000.0001) %MON seaice_heff_sd               =   1.0694993182130E+00
(PID.TID 0000.0001) %MON seaice_heff_del2             =   3.8924395479665E-03
(PID.TID 0000.0001) %MON seaice_hsnow_max             =   8.3119428815553E+00
(PID.TID 0000.0001) %MON seaice_hsnow_min             =   0.0000000000000E+00
(PID.TID 0000.0001) %MON seaice_hsnow_mean            =   2.4397430573360E-02
(PID.TID 0000.0001) %MON seaice_hsnow_sd              =   1.5722497114520E-01
(PID.TID 0000.0001) %MON seaice_hsnow_del2            =   1.2497573982699E-03
(PID.TID 0000.0001) // =======================================================
(PID.TID 0000.0001) // End MONITOR SEAICE statistics
(PID.TID 0000.0001) // =======================================================
 Computing Diagnostic #     86  oceQnet      Counter:       4   Parms: SM      U1      
 Computing Diagnostic #     87  oceQsw       Counter:       4   Parms: SM      U1      
 Computing Diagnostic #     84  oceFWflx     Counter:       4   Parms: SM      U1      
 Computing Diagnostic #     85  oceSflux     Counter:       4   Parms: SM      U1      
 Computing Diagnostic #     80  oceTAUX      Counter:       4   Parms: UU      U1      
           Vector  Mate for  oceTAUX      Diagnostic #     81  oceTAUY  exists 
 Computing Diagnostic #     81  oceTAUY      Counter:       4   Parms: VV      U1      
           Vector  Mate for  oceTAUY      Diagnostic #     80  oceTAUX  exists 
 Computing Diagnostic #     26  THETA        Counter:       4   Parms: SMR     MR      
 Computing Diagnostic #     27  SALT         Counter:       4   Parms: SMR     MR      
 Computing Diagnostic #     30  UVEL         Counter:       4   Parms: UUR     MR      
           Vector  Mate for  UVEL         Diagnostic #     31  VVEL     exists 
 Computing Diagnostic #     31  VVEL         Counter:       4   Parms: VVR     MR      
           Vector  Mate for  VVEL         Diagnostic #     30  UVEL     exists 
 Computing Diagnostic #    214  SIarea       Counter:       4   Parms: SM      M1      
 Computing Diagnostic #    217  SIheff       Counter:       4   Parms: SM      M1      
 Computing Diagnostic #    219  SIhsnow      Counter:       4   Parms: SM      M1      
 Computing Diagnostic #     83  sIceLoad     Counter:       4   Parms: SM      U1      
 Computing Diagnostic #    223  SIuice       Counter:       4   Parms: UU      M1      
           Vector  Mate for  SIuice       Diagnostic #    224  SIvice   exists 
 Computing Diagnostic #    224  SIvice       Counter:       4   Parms: VV      M1      
           Vector  Mate for  SIvice       Diagnostic #    223  SIuice   exists 
 Computing Diagnostic #    225  SItaux       Counter:       4   Parms: UU      U1      
           Vector  Mate for  SItaux       Diagnostic #    226  SItauy   exists 
 Computing Diagnostic #    226  SItauy       Counter:       4   Parms: VV      U1      
           Vector  Mate for  SItauy       Diagnostic #    225  SItaux   exists 
 Computing Diagnostic #    285  SIareaN      Counter:       4   Parms: SM      MX      
 Computing Diagnostic #    284  SIheffN      Counter:       4   Parms: SM      MX      
 Computing Diagnostic #    286  SIhsnowN     Counter:       4   Parms: SM      MX      
 Compute Stats, Diag. #    214  SIarea    vol(   0 ): 3.580E+14  Parms: SM      M1      
 Compute Stats, Diag. #    217  SIheff    vol(   0 ): 3.580E+14  Parms: SM      M1      
 Compute Stats, Diag. #    219  SIhsnow   vol(   0 ): 3.580E+14  Parms: SM      M1      
 Compute Stats, Diag. #     83  sIceLoad  vol(   0 ): 3.580E+14  Parms: SM      U1      
 Compute Stats, Diag. #    223  SIuice    vol(   0 ): 3.513E+14  Parms: UU      M1      
 Compute Stats, Diag. #    224  SIvice    vol(   0 ): 3.508E+14  Parms: VV      M1      
 Compute Stats, Diag. #    225  SItaux    vol(   0 ): 3.513E+14  Parms: UU      U1      
 Compute Stats, Diag. #    226  SItauy    vol(   0 ): 3.508E+14  Parms: VV      U1      
 cg2d: Sum(rhs),rhsMax =   3.56245983273254E+01  2.92459925526362E-01
 Compute Stats, Diag. #    214  SIarea    vol(   0 ): 3.580E+14  Parms: SM      M1      
 Compute Stats, Diag. #    217  SIheff    vol(   0 ): 3.580E+14  Parms: SM      M1      
 Compute Stats, Diag. #    219  SIhsnow   vol(   0 ): 3.580E+14  Parms: SM      M1      
 Compute Stats, Diag. #     83  sIceLoad  vol(   0 ): 3.580E+14  Parms: SM      U1      
 Compute Stats, Diag. #    223  SIuice    vol(   0 ): 3.513E+14  Parms: UU      M1      
 Compute Stats, Diag. #    224  SIvice    vol(   0 ): 3.508E+14  Parms: VV      M1      
 Compute Stats, Diag. #    225  SItaux    vol(   0 ): 3.513E+14  Parms: UU      U1      
 Compute Stats, Diag. #    226  SItauy    vol(   0 ): 3.508E+14  Parms: VV      U1      
 cg2d: Sum(rhs),rhsMax =   3.54488595831031E+01  2.92495078424803E-01
 Compute Stats, Diag. #    214  SIarea    vol(   0 ): 3.580E+14  Parms: SM      M1      
 Compute Stats, Diag. #    217  SIheff    vol(   0 ): 3.580E+14  Parms: SM      M1      
 Compute Stats, Diag. #    219  SIhsnow   vol(   0 ): 3.580E+14  Parms: SM      M1      
 Compute Stats, Diag. #     83  sIceLoad  vol(   0 ): 3.580E+14  Parms: SM      U1      
 Compute Stats, Diag. #    223  SIuice    vol(   0 ): 3.513E+14  Parms: UU      M1      
 Compute Stats, Diag. #    224  SIvice    vol(   0 ): 3.508E+14  Parms: VV      M1      
 Compute Stats, Diag. #    225  SItaux    vol(   0 ): 3.513E+14  Parms: UU      U1      
 Compute Stats, Diag. #    226  SItauy    vol(   0 ): 3.508E+14  Parms: VV      U1      
 cg2d: Sum(rhs),rhsMax =   3.52808981738448E+01  2.92528658043710E-01
 Compute Stats, Diag. #    214  SIarea    vol(   0 ): 3.580E+14  Parms: SM      M1      
 Compute Stats, Diag. #    217  SIheff    vol(   0 ): 3.580E+14  Parms: SM      M1      
 Compute Stats, Diag. #    219  SIhsnow   vol(   0 ): 3.580E+14  Parms: SM      M1      
 Compute Stats, Diag. #     83  sIceLoad  vol(   0 ): 3.580E+14  Parms: SM      U1      
 Compute Stats, Diag. #    223  SIuice    vol(   0 ): 3.513E+14  Parms: UU      M1      
 Compute Stats, Diag. #    224  SIvice    vol(   0 ): 3.508E+14  Parms: VV      M1      
 Compute Stats, Diag. #    225  SItaux    vol(   0 ): 3.513E+14  Parms: UU      U1      
 Compute Stats, Diag. #    226  SItauy    vol(   0 ): 3.508E+14  Parms: VV      U1      
 cg2d: Sum(rhs),rhsMax =   3.51011484150031E+01  2.92560067264840E-01
 Computing Diagnostic #     86  oceQnet      Counter:       4   Parms: SM      U1      
 Computing Diagnostic #     87  oceQsw       Counter:       4   Parms: SM      U1      
 Computing Diagnostic #     84  oceFWflx     Counter:       4   Parms: SM      U1      
 Computing Diagnostic #     85  oceSflux     Counter:       4   Parms: SM      U1      
 Computing Diagnostic #     80  oceTAUX      Counter:       4   Parms: UU      U1      
           Vector  Mate for  oceTAUX      Diagnostic #     81  oceTAUY  exists 
 Computing Diagnostic #     81  oceTAUY      Counter:       4   Parms: VV      U1      
           Vector  Mate for  oceTAUY      Diagnostic #     80  oceTAUX  exists 
 Computing Diagnostic #     26  THETA        Counter:       4   Parms: SMR     MR      
 Computing Diagnostic #     27  SALT         Counter:       4   Parms: SMR     MR      
 Computing Diagnostic #     30  UVEL         Counter:       4   Parms: UUR     MR      
           Vector  Mate for  UVEL         Diagnostic #     31  VVEL     exists 
 Computing Diagnostic #     31  VVEL         Counter:       4   Parms: VVR     MR      
           Vector  Mate for  VVEL         Diagnostic #     30  UVEL     exists 
 Computing Diagnostic #    214  SIarea       Counter:       4   Parms: SM      M1      
 Computing Diagnostic #    217  SIheff       Counter:       4   Parms: SM      M1      
 Computing Diagnostic #    219  SIhsnow      Counter:       4   Parms: SM      M1      
 Computing Diagnostic #     83  sIceLoad     Counter:       4   Parms: SM      U1      
 Computing Diagnostic #    223  SIuice       Counter:       4   Parms: UU      M1      
           Vector  Mate for  SIuice       Diagnostic #    224  SIvice   exists 
 Computing Diagnostic #    224  SIvice       Counter:       4   Parms: VV      M1      
           Vector  Mate for  SIvice       Diagnostic #    223  SIuice   exists 
 Computing Diagnostic #    225  SItaux       Counter:       4   Parms: UU      U1      
           Vector  Mate for  SItaux       Diagnostic #    226  SItauy   exists 
 Computing Diagnostic #    226  SItauy       Counter:       4   Parms: VV      U1      
           Vector  Mate for  SItauy       Diagnostic #    225  SItaux   exists 
 Computing Diagnostic #    285  SIareaN      Counter:       4   Parms: SM      MX      
 Computing Diagnostic #    284  SIheffN      Counter:       4   Parms: SM      MX      
 Computing Diagnostic #    286  SIhsnowN     Counter:       4   Parms: SM      MX      
 Compute Stats, Diag. #    214  SIarea    vol(   0 ): 3.580E+14  Parms: SM      M1      
 Compute Stats, Diag. #    217  SIheff    vol(   0 ): 3.580E+14  Parms: SM      M1      
 Compute Stats, Diag. #    219  SIhsnow   vol(   0 ): 3.580E+14  Parms: SM      M1      
 Compute Stats, Diag. #     83  sIceLoad  vol(   0 ): 3.580E+14  Parms: SM      U1      
 Compute Stats, Diag. #    223  SIuice    vol(   0 ): 3.513E+14  Parms: UU      M1      
 Compute Stats, Diag. #    224  SIvice    vol(   0 ): 3.508E+14  Parms: VV      M1      
 Compute Stats, Diag. #    225  SItaux    vol(   0 ): 3.513E+14  Parms: UU      U1      
 Compute Stats, Diag. #    226  SItauy    vol(   0 ): 3.508E+14  Parms: VV      U1      
 cg2d: Sum(rhs),rhsMax =   3.49352741104291E+01  2.92588839493312E-01
 Compute Stats, Diag. #    214  SIarea    vol(   0 ): 3.580E+14  Parms: SM      M1      
 Compute Stats, Diag. #    217  SIheff    vol(   0 ): 3.580E+14  Parms: SM      M1      
 Compute Stats, Diag. #    219  SIhsnow   vol(   0 ): 3.580E+14  Parms: SM      M1      
 Compute Stats, Diag. #     83  sIceLoad  vol(   0 ): 3.580E+14  Parms: SM      U1      
 Compute Stats, Diag. #    223  SIuice    vol(   0 ): 3.513E+14  Parms: UU      M1      
 Compute Stats, Diag. #    224  SIvice    vol(   0 ): 3.508E+14  Parms: VV      M1      
 Compute Stats, Diag. #    225  SItaux    vol(   0 ): 3.513E+14  Parms: UU      U1      
 Compute Stats, Diag. #    226  SItauy    vol(   0 ): 3.508E+14  Parms: VV      U1      
 cg2d: Sum(rhs),rhsMax =   3.47690096968466E+01  2.92613617880024E-01
 Compute Stats, Diag. #    214  SIarea    vol(   0 ): 3.580E+14  Parms: SM      M1      
 Compute Stats, Diag. #    217  SIheff    vol(   0 ): 3.580E+14  Parms: SM      M1      
 Compute Stats, Diag. #    219  SIhsnow   vol(   0 ): 3.580E+14  Parms: SM      M1      
 Compute Stats, Diag. #     83  sIceLoad  vol(   0 ): 3.580E+14  Parms: SM      U1      
 Compute Stats, Diag. #    223  SIuice    vol(   0 ): 3.513E+14  Parms: UU      M1      
 Compute Stats, Diag. #    224  SIvice    vol(   0 ): 3.508E+14  Parms: VV      M1      
 Compute Stats, Diag. #    225  SItaux    vol(   0 ): 3.513E+14  Parms: UU      U1      
 Compute Stats, Diag. #    226  SItauy    vol(   0 ): 3.508E+14  Parms: VV      U1      
 cg2d: Sum(rhs),rhsMax =   3.46097498691098E+01  2.92633977866753E-01
 Compute Stats, Diag. #    214  SIarea    vol(   0 ): 3.580E+14  Parms: SM      M1      
 Compute Stats, Diag. #    217  SIheff    vol(   0 ): 3.580E+14  Parms: SM      M1      
 Compute Stats, Diag. #    219  SIhsnow   vol(   0 ): 3.580E+14  Parms: SM      M1      
 Compute Stats, Diag. #     83  sIceLoad  vol(   0 ): 3.580E+14  Parms: SM      U1      
 Compute Stats, Diag. #    223  SIuice    vol(   0 ): 3.513E+14  Parms: UU      M1      
 Compute Stats, Diag. #    224  SIvice    vol(   0 ): 3.508E+14  Parms: VV      M1      
 Compute Stats, Diag. #    225  SItaux    vol(   0 ): 3.513E+14  Parms: UU      U1      
 Compute Stats, Diag. #    226  SItauy    vol(   0 ): 3.508E+14  Parms: VV      U1      
 cg2d: Sum(rhs),rhsMax =   3.44421827712061E+01  2.92648596593751E-01
(PID.TID 0000.0001)      cg2d_init_res =   1.06428453339077E-01
(PID.TID 0000.0001)      cg2d_iters(min,last) =      -1      27
(PID.TID 0000.0001)      cg2d_last_res =   2.28837606739408E-05
(PID.TID 0000.0001) // =======================================================
(PID.TID 0000.0001) // Begin MONITOR dynamic field statistics
(PID.TID 0000.0001) // =======================================================
(PID.TID 0000.0001) %MON time_tsnumber                =                   272
(PID.TID 0000.0001) %MON time_secondsf                =   2.4480000000000E+05
(PID.TID 0000.0001) %MON dynstat_eta_max              =   1.0626156192524E+00
(PID.TID 0000.0001) %MON dynstat_eta_min              =  -1.9452908012699E+00
(PID.TID 0000.0001) %MON dynstat_eta_mean             =  -1.0895162420863E-03
(PID.TID 0000.0001) %MON dynstat_eta_sd               =   6.4920842672036E-01
(PID.TID 0000.0001) %MON dynstat_eta_del2             =   6.4796908061279E-05
(PID.TID 0000.0001) %MON dynstat_uvel_max             =   9.2500061184913E-01
(PID.TID 0000.0001) %MON dynstat_uvel_min             =  -8.7397397370348E-01
(PID.TID 0000.0001) %MON dynstat_uvel_mean            =   1.3822943604861E-03
(PID.TID 0000.0001) %MON dynstat_uvel_sd              =   1.9989311039264E-02
(PID.TID 0000.0001) %MON dynstat_uvel_del2            =   8.5506089279895E-06
(PID.TID 0000.0001) %MON dynstat_vvel_max             =   1.2075853798731E+00
(PID.TID 0000.0001) %MON dynstat_vvel_min             =  -8.7330540643582E-01
(PID.TID 0000.0001) %MON dynstat_vvel_mean            =   9.6872642195121E-04
(PID.TID 0000.0001) %MON dynstat_vvel_sd              =   2.0827940788968E-02
(PID.TID 0000.0001) %MON dynstat_vvel_del2            =   8.9047145989391E-06
(PID.TID 0000.0001) %MON dynstat_wvel_max             =   5.1284333850929E-04
(PID.TID 0000.0001) %MON dynstat_wvel_min             =  -8.0388179688546E-04
(PID.TID 0000.0001) %MON dynstat_wvel_mean            =   2.8158156755006E-08
(PID.TID 0000.0001) %MON dynstat_wvel_sd              =   2.1250383588947E-05
(PID.TID 0000.0001) %MON dynstat_wvel_del2            =   1.9241243934571E-08
(PID.TID 0000.0001) %MON dynstat_theta_max            =   3.2383230818963E+01
(PID.TID 0000.0001) %MON dynstat_theta_min            =  -2.0413868915372E+00
(PID.TID 0000.0001) %MON dynstat_theta_mean           =   3.5904052979556E+00
(PID.TID 0000.0001) %MON dynstat_theta_sd             =   4.4360553341741E+00
(PID.TID 0000.0001) %MON dynstat_theta_del2           =   9.7853571282922E-05
(PID.TID 0000.0001) %MON dynstat_salt_max             =   4.0711547052324E+01
(PID.TID 0000.0001) %MON dynstat_salt_min             =   1.2760107029405E+01
(PID.TID 0000.0001) %MON dynstat_salt_mean            =   3.4725582084503E+01
(PID.TID 0000.0001) %MON dynstat_salt_sd              =   3.7701330602542E-01
(PID.TID 0000.0001) %MON dynstat_salt_del2            =   3.3921360453546E-05
(PID.TID 0000.0001) %MON dynstat_sst_max              =   3.2368940910917E+01
(PID.TID 0000.0001) %MON dynstat_sst_min              =  -1.8153105441884E+00
(PID.TID 0000.0001) %MON dynstat_sst_mean             =   1.8478693164714E+01
(PID.TID 0000.0001) %MON dynstat_sst_sd               =   1.0158752255179E+01
(PID.TID 0000.0001) %MON dynstat_sst_del2             =   8.1958141228809E-04
(PID.TID 0000.0001) %MON dynstat_sss_max              =   3.9144198831717E+01
(PID.TID 0000.0001) %MON dynstat_sss_min              =   1.2760107029405E+01
(PID.TID 0000.0001) %MON dynstat_sss_mean             =   3.4697036612957E+01
(PID.TID 0000.0001) %MON dynstat_sss_sd               =   1.1478091023406E+00
(PID.TID 0000.0001) %MON dynstat_sss_del2             =   1.0113303254527E-03
(PID.TID 0000.0001) %MON forcing_qnet_max             =   7.8300933837891E+02
(PID.TID 0000.0001) %MON forcing_qnet_min             =  -8.1206184872295E+02
(PID.TID 0000.0001) %MON forcing_qnet_mean            =  -1.4982261696042E-01
(PID.TID 0000.0001) %MON forcing_qnet_sd              =   1.8978911732551E+02
(PID.TID 0000.0001) %MON forcing_qnet_del2            =   3.2009894307246E-01
(PID.TID 0000.0001) %MON forcing_qsw_max              =   0.0000000000000E+00
(PID.TID 0000.0001) %MON forcing_qsw_min              =  -1.0972442912514E+02
(PID.TID 0000.0001) %MON forcing_qsw_mean             =  -1.8915334446024E+01
(PID.TID 0000.0001) %MON forcing_qsw_sd               =   2.8613694231632E+01
(PID.TID 0000.0001) %MON forcing_qsw_del2             =   2.1460015844106E-02
(PID.TID 0000.0001) %MON forcing_empmr_max            =   1.4055718202144E-03
(PID.TID 0000.0001) %MON forcing_empmr_min            =  -5.0730746239424E-02
(PID.TID 0000.0001) %MON forcing_empmr_mean           =  -6.0604469692664E-06
(PID.TID 0000.0001) %MON forcing_empmr_sd             =   2.5247938225092E-04
(PID.TID 0000.0001) %MON forcing_empmr_del2           =   2.7493175395551E-06
(PID.TID 0000.0001) %MON forcing_fu_max               =   6.1470606923103E-01
(PID.TID 0000.0001) %MON forcing_fu_min               =  -5.7334598898888E-01
(PID.TID 0000.0001) %MON forcing_fu_mean              =   4.5328488928068E-03
(PID.TID 0000.0001) %MON forcing_fu_sd                =   8.7035980331149E-02
(PID.TID 0000.0001) %MON forcing_fu_del2              =   1.0488078708471E-04
(PID.TID 0000.0001) %MON forcing_fv_max               =   1.0522528290749E+00
(PID.TID 0000.0001) %MON forcing_fv_min               =  -7.6884087920189E-01
(PID.TID 0000.0001) %MON forcing_fv_mean              =  -5.5315208409158E-03
(PID.TID 0000.0001) %MON forcing_fv_sd                =   1.0900904374221E-01
(PID.TID 0000.0001) %MON forcing_fv_del2              =   1.3696203217440E-04
(PID.TID 0000.0001) %MON trAdv_CFL_u_max              =   1.6937069049617E-02
(PID.TID 0000.0001) %MON trAdv_CFL_v_max              =   2.0904673816609E-02
(PID.TID 0000.0001) %MON trAdv_CFL_w_max              =   3.1532571290168E-02
(PID.TID 0000.0001) %MON advcfl_uvel_max              =   1.7703653733603E-02
(PID.TID 0000.0001) %MON advcfl_vvel_max              =   2.1435732354936E-02
(PID.TID 0000.0001) %MON advcfl_wvel_max              =   3.1823201247922E-02
(PID.TID 0000.0001) %MON advcfl_W_hf_max              =   3.2031017055856E-02
(PID.TID 0000.0001) %MON pe_b_mean                    =   5.5440600476328E-04
(PID.TID 0000.0001) %MON ke_max                       =   7.2388036904970E-01
(PID.TID 0000.0001) %MON ke_mean                      =   4.0322261544812E-04
(PID.TID 0000.0001) %MON ke_vol                       =   1.3349974849797E+18
(PID.TID 0000.0001) %MON vort_r_min                   =  -2.2947521664440E-05
(PID.TID 0000.0001) %MON vort_r_max                   =   3.4406339743180E-05
(PID.TID 0000.0001) %MON vort_a_mean                  =  -1.9727864647440E-05
(PID.TID 0000.0001) %MON vort_a_sd                    =   7.4542957849860E-05
(PID.TID 0000.0001) %MON vort_p_mean                  =  -2.1760537413669E-05
(PID.TID 0000.0001) %MON vort_p_sd                    =   9.7246933459247E-05
(PID.TID 0000.0001) %MON surfExpan_theta_mean         =   1.2635215228454E-07
(PID.TID 0000.0001) %MON surfExpan_salt_mean          =   1.6638288375483E-09
(PID.TID 0000.0001) // =======================================================
(PID.TID 0000.0001) // End MONITOR dynamic field statistics
(PID.TID 0000.0001) // =======================================================
(PID.TID 0000.0001) // =======================================================
(PID.TID 0000.0001) // Begin MONITOR SEAICE statistics
(PID.TID 0000.0001) // =======================================================
(PID.TID 0000.0001) %MON seaice_tsnumber              =                   272
(PID.TID 0000.0001) %MON seaice_time_sec              =   2.4480000000000E+05
(PID.TID 0000.0001) %MON seaice_uice_max              =   4.0000000000000E-01
(PID.TID 0000.0001) %MON seaice_uice_min              =  -4.0000000000000E-01
(PID.TID 0000.0001) %MON seaice_uice_mean             =  -8.3054598624025E-03
(PID.TID 0000.0001) %MON seaice_uice_sd               =   1.9802383574176E-01
(PID.TID 0000.0001) %MON seaice_uice_del2             =   2.2931571122150E-04
(PID.TID 0000.0001) %MON seaice_vice_max              =   4.0000000000000E-01
(PID.TID 0000.0001) %MON seaice_vice_min              =  -4.0000000000000E-01
(PID.TID 0000.0001) %MON seaice_vice_mean             =  -2.1960776359499E-02
(PID.TID 0000.0001) %MON seaice_vice_sd               =   2.1302038025672E-01
(PID.TID 0000.0001) %MON seaice_vice_del2             =   2.3932563818061E-04
(PID.TID 0000.0001) %MON seaice_area_max              =   1.0000000000000E+00
(PID.TID 0000.0001) %MON seaice_area_min              =   0.0000000000000E+00
(PID.TID 0000.0001) %MON seaice_area_mean             =   6.8311848574314E-02
(PID.TID 0000.0001) %MON seaice_area_sd               =   2.3419957629493E-01
(PID.TID 0000.0001) %MON seaice_area_del2             =   4.3473172099230E-04
(PID.TID 0000.0001) %MON seaice_heff_max              =   2.5162368163466E+01
(PID.TID 0000.0001) %MON seaice_heff_min              =   0.0000000000000E+00
(PID.TID 0000.0001) %MON seaice_heff_mean             =   2.1522581453448E-01
(PID.TID 0000.0001) %MON seaice_heff_sd               =   1.0694283699855E+00
(PID.TID 0000.0001) %MON seaice_heff_del2             =   3.8914328285267E-03
(PID.TID 0000.0001) %MON seaice_hsnow_max             =   8.3107338191185E+00
(PID.TID 0000.0001) %MON seaice_hsnow_min             =   0.0000000000000E+00
(PID.TID 0000.0001) %MON seaice_hsnow_mean            =   2.4388711262243E-02
(PID.TID 0000.0001) %MON seaice_hsnow_sd              =   1.5719155305189E-01
(PID.TID 0000.0001) %MON seaice_hsnow_del2            =   1.2495506183209E-03
(PID.TID 0000.0001) // =======================================================
(PID.TID 0000.0001) // End MONITOR SEAICE statistics
(PID.TID 0000.0001) // =======================================================
 Computing Diagnostic #     86  oceQnet      Counter:       4   Parms: SM      U1      
 Computing Diagnostic #     87  oceQsw       Counter:       4   Parms: SM      U1      
 Computing Diagnostic #     84  oceFWflx     Counter:       4   Parms: SM      U1      
 Computing Diagnostic #     85  oceSflux     Counter:       4   Parms: SM      U1      
 Computing Diagnostic #     80  oceTAUX      Counter:       4   Parms: UU      U1      
           Vector  Mate for  oceTAUX      Diagnostic #     81  oceTAUY  exists 
 Computing Diagnostic #     81  oceTAUY      Counter:       4   Parms: VV      U1      
           Vector  Mate for  oceTAUY      Diagnostic #     80  oceTAUX  exists 
 Computing Diagnostic #     26  THETA        Counter:       4   Parms: SMR     MR      
 Computing Diagnostic #     27  SALT         Counter:       4   Parms: SMR     MR      
 Computing Diagnostic #     30  UVEL         Counter:       4   Parms: UUR     MR      
           Vector  Mate for  UVEL         Diagnostic #     31  VVEL     exists 
 Computing Diagnostic #     31  VVEL         Counter:       4   Parms: VVR     MR      
           Vector  Mate for  VVEL         Diagnostic #     30  UVEL     exists 
 Computing Diagnostic #    214  SIarea       Counter:       4   Parms: SM      M1      
 Computing Diagnostic #    217  SIheff       Counter:       4   Parms: SM      M1      
 Computing Diagnostic #    219  SIhsnow      Counter:       4   Parms: SM      M1      
 Computing Diagnostic #     83  sIceLoad     Counter:       4   Parms: SM      U1      
 Computing Diagnostic #    223  SIuice       Counter:       4   Parms: UU      M1      
           Vector  Mate for  SIuice       Diagnostic #    224  SIvice   exists 
 Computing Diagnostic #    224  SIvice       Counter:       4   Parms: VV      M1      
           Vector  Mate for  SIvice       Diagnostic #    223  SIuice   exists 
 Computing Diagnostic #    225  SItaux       Counter:       4   Parms: UU      U1      
           Vector  Mate for  SItaux       Diagnostic #    226  SItauy   exists 
 Computing Diagnostic #    226  SItauy       Counter:       4   Parms: VV      U1      
           Vector  Mate for  SItauy       Diagnostic #    225  SItaux   exists 
 Computing Diagnostic #    285  SIareaN      Counter:       4   Parms: SM      MX      
 Computing Diagnostic #    284  SIheffN      Counter:       4   Parms: SM      MX      
 Computing Diagnostic #    286  SIhsnowN     Counter:       4   Parms: SM      MX      
 Compute Stats, Diag. #    214  SIarea    vol(   0 ): 3.580E+14  Parms: SM      M1      
 Compute Stats, Diag. #    217  SIheff    vol(   0 ): 3.580E+14  Parms: SM      M1      
 Compute Stats, Diag. #    219  SIhsnow   vol(   0 ): 3.580E+14  Parms: SM      M1      
 Compute Stats, Diag. #     83  sIceLoad  vol(   0 ): 3.580E+14  Parms: SM      U1      
 Compute Stats, Diag. #    223  SIuice    vol(   0 ): 3.513E+14  Parms: UU      M1      
 Compute Stats, Diag. #    224  SIvice    vol(   0 ): 3.508E+14  Parms: VV      M1      
 Compute Stats, Diag. #    225  SItaux    vol(   0 ): 3.513E+14  Parms: UU      U1      
 Compute Stats, Diag. #    226  SItauy    vol(   0 ): 3.508E+14  Parms: VV      U1      
 cg2d: Sum(rhs),rhsMax =   3.42778868698252E+01  2.92656980238489E-01
 Compute Stats, Diag. #    214  SIarea    vol(   0 ): 3.580E+14  Parms: SM      M1      
 Compute Stats, Diag. #    217  SIheff    vol(   0 ): 3.580E+14  Parms: SM      M1      
 Compute Stats, Diag. #    219  SIhsnow   vol(   0 ): 3.580E+14  Parms: SM      M1      
 Compute Stats, Diag. #     83  sIceLoad  vol(   0 ): 3.580E+14  Parms: SM      U1      
 Compute Stats, Diag. #    223  SIuice    vol(   0 ): 3.513E+14  Parms: UU      M1      
 Compute Stats, Diag. #    224  SIvice    vol(   0 ): 3.508E+14  Parms: VV      M1      
 Compute Stats, Diag. #    225  SItaux    vol(   0 ): 3.513E+14  Parms: UU      U1      
 Compute Stats, Diag. #    226  SItauy    vol(   0 ): 3.508E+14  Parms: VV      U1      
 cg2d: Sum(rhs),rhsMax =   3.41115444883459E+01  2.92658639825701E-01
 Compute Stats, Diag. #    214  SIarea    vol(   0 ): 3.580E+14  Parms: SM      M1      
 Compute Stats, Diag. #    217  SIheff    vol(   0 ): 3.580E+14  Parms: SM      M1      
 Compute Stats, Diag. #    219  SIhsnow   vol(   0 ): 3.580E+14  Parms: SM      M1      
 Compute Stats, Diag. #     83  sIceLoad  vol(   0 ): 3.580E+14  Parms: SM      U1      
 Compute Stats, Diag. #    223  SIuice    vol(   0 ): 3.513E+14  Parms: UU      M1      
 Compute Stats, Diag. #    224  SIvice    vol(   0 ): 3.508E+14  Parms: VV      M1      
 Compute Stats, Diag. #    225  SItaux    vol(   0 ): 3.513E+14  Parms: UU      U1      
 Compute Stats, Diag. #    226  SItauy    vol(   0 ): 3.508E+14  Parms: VV      U1      
 cg2d: Sum(rhs),rhsMax =   3.39453138588979E+01  2.92652659600489E-01
 Compute Stats, Diag. #    214  SIarea    vol(   0 ): 3.580E+14  Parms: SM      M1      
 Compute Stats, Diag. #    217  SIheff    vol(   0 ): 3.580E+14  Parms: SM      M1      
 Compute Stats, Diag. #    219  SIhsnow   vol(   0 ): 3.580E+14  Parms: SM      M1      
 Compute Stats, Diag. #     83  sIceLoad  vol(   0 ): 3.580E+14  Parms: SM      U1      
 Compute Stats, Diag. #    223  SIuice    vol(   0 ): 3.513E+14  Parms: UU      M1      
 Compute Stats, Diag. #    224  SIvice    vol(   0 ): 3.508E+14  Parms: VV      M1      
 Compute Stats, Diag. #    225  SItaux    vol(   0 ): 3.513E+14  Parms: UU      U1      
 Compute Stats, Diag. #    226  SItauy    vol(   0 ): 3.508E+14  Parms: VV      U1      
 cg2d: Sum(rhs),rhsMax =   3.37741091723777E+01  2.92638791643972E-01
 Computing Diagnostic #     86  oceQnet      Counter:       4   Parms: SM      U1      
 Computing Diagnostic #     87  oceQsw       Counter:       4   Parms: SM      U1      
 Computing Diagnostic #     84  oceFWflx     Counter:       4   Parms: SM      U1      
 Computing Diagnostic #     85  oceSflux     Counter:       4   Parms: SM      U1      
 Computing Diagnostic #     80  oceTAUX      Counter:       4   Parms: UU      U1      
           Vector  Mate for  oceTAUX      Diagnostic #     81  oceTAUY  exists 
 Computing Diagnostic #     81  oceTAUY      Counter:       4   Parms: VV      U1      
           Vector  Mate for  oceTAUY      Diagnostic #     80  oceTAUX  exists 
 Computing Diagnostic #     26  THETA        Counter:       4   Parms: SMR     MR      
 Computing Diagnostic #     27  SALT         Counter:       4   Parms: SMR     MR      
 Computing Diagnostic #     30  UVEL         Counter:       4   Parms: UUR     MR      
           Vector  Mate for  UVEL         Diagnostic #     31  VVEL     exists 
 Computing Diagnostic #     31  VVEL         Counter:       4   Parms: VVR     MR      
           Vector  Mate for  VVEL         Diagnostic #     30  UVEL     exists 
 Computing Diagnostic #    214  SIarea       Counter:       4   Parms: SM      M1      
 Computing Diagnostic #    217  SIheff       Counter:       4   Parms: SM      M1      
 Computing Diagnostic #    219  SIhsnow      Counter:       4   Parms: SM      M1      
 Computing Diagnostic #     83  sIceLoad     Counter:       4   Parms: SM      U1      
 Computing Diagnostic #    223  SIuice       Counter:       4   Parms: UU      M1      
           Vector  Mate for  SIuice       Diagnostic #    224  SIvice   exists 
 Computing Diagnostic #    224  SIvice       Counter:       4   Parms: VV      M1      
           Vector  Mate for  SIvice       Diagnostic #    223  SIuice   exists 
 Computing Diagnostic #    225  SItaux       Counter:       4   Parms: UU      U1      
           Vector  Mate for  SItaux       Diagnostic #    226  SItauy   exists 
 Computing Diagnostic #    226  SItauy       Counter:       4   Parms: VV      U1      
           Vector  Mate for  SItauy       Diagnostic #    225  SItaux   exists 
 Computing Diagnostic #    285  SIareaN      Counter:       4   Parms: SM      MX      
 Computing Diagnostic #    284  SIheffN      Counter:       4   Parms: SM      MX      
 Computing Diagnostic #    286  SIhsnowN     Counter:       4   Parms: SM      MX      
 Compute Stats, Diag. #    214  SIarea    vol(   0 ): 3.580E+14  Parms: SM      M1      
 Compute Stats, Diag. #    217  SIheff    vol(   0 ): 3.580E+14  Parms: SM      M1      
 Compute Stats, Diag. #    219  SIhsnow   vol(   0 ): 3.580E+14  Parms: SM      M1      
 Compute Stats, Diag. #     83  sIceLoad  vol(   0 ): 3.580E+14  Parms: SM      U1      
 Compute Stats, Diag. #    223  SIuice    vol(   0 ): 3.513E+14  Parms: UU      M1      
 Compute Stats, Diag. #    224  SIvice    vol(   0 ): 3.508E+14  Parms: VV      M1      
 Compute Stats, Diag. #    225  SItaux    vol(   0 ): 3.513E+14  Parms: UU      U1      
 Compute Stats, Diag. #    226  SItauy    vol(   0 ): 3.508E+14  Parms: VV      U1      
 cg2d: Sum(rhs),rhsMax =   3.36009041736991E+01  2.92616607950271E-01
 Compute Stats, Diag. #    214  SIarea    vol(   0 ): 3.580E+14  Parms: SM      M1      
 Compute Stats, Diag. #    217  SIheff    vol(   0 ): 3.580E+14  Parms: SM      M1      
 Compute Stats, Diag. #    219  SIhsnow   vol(   0 ): 3.580E+14  Parms: SM      M1      
 Compute Stats, Diag. #     83  sIceLoad  vol(   0 ): 3.580E+14  Parms: SM      U1      
 Compute Stats, Diag. #    223  SIuice    vol(   0 ): 3.513E+14  Parms: UU      M1      
 Compute Stats, Diag. #    224  SIvice    vol(   0 ): 3.508E+14  Parms: VV      M1      
 Compute Stats, Diag. #    225  SItaux    vol(   0 ): 3.513E+14  Parms: UU      U1      
 Compute Stats, Diag. #    226  SItauy    vol(   0 ): 3.508E+14  Parms: VV      U1      
 cg2d: Sum(rhs),rhsMax =   3.34324599296025E+01  2.92586176135964E-01
 Compute Stats, Diag. #    214  SIarea    vol(   0 ): 3.580E+14  Parms: SM      M1      
 Compute Stats, Diag. #    217  SIheff    vol(   0 ): 3.580E+14  Parms: SM      M1      
 Compute Stats, Diag. #    219  SIhsnow   vol(   0 ): 3.580E+14  Parms: SM      M1      
 Compute Stats, Diag. #     83  sIceLoad  vol(   0 ): 3.580E+14  Parms: SM      U1      
 Compute Stats, Diag. #    223  SIuice    vol(   0 ): 3.513E+14  Parms: UU      M1      
 Compute Stats, Diag. #    224  SIvice    vol(   0 ): 3.508E+14  Parms: VV      M1      
 Compute Stats, Diag. #    225  SItaux    vol(   0 ): 3.513E+14  Parms: UU      U1      
 Compute Stats, Diag. #    226  SItauy    vol(   0 ): 3.508E+14  Parms: VV      U1      
 cg2d: Sum(rhs),rhsMax =   3.32660202039212E+01  2.92547414957306E-01
 Compute Stats, Diag. #    214  SIarea    vol(   0 ): 3.580E+14  Parms: SM      M1      
 Compute Stats, Diag. #    217  SIheff    vol(   0 ): 3.580E+14  Parms: SM      M1      
 Compute Stats, Diag. #    219  SIhsnow   vol(   0 ): 3.580E+14  Parms: SM      M1      
 Compute Stats, Diag. #     83  sIceLoad  vol(   0 ): 3.580E+14  Parms: SM      U1      
 Compute Stats, Diag. #    223  SIuice    vol(   0 ): 3.513E+14  Parms: UU      M1      
 Compute Stats, Diag. #    224  SIvice    vol(   0 ): 3.508E+14  Parms: VV      M1      
 Compute Stats, Diag. #    225  SItaux    vol(   0 ): 3.513E+14  Parms: UU      U1      
 Compute Stats, Diag. #    226  SItauy    vol(   0 ): 3.508E+14  Parms: VV      U1      
 cg2d: Sum(rhs),rhsMax =   3.31086751317628E+01  2.92500406194326E-01
(PID.TID 0000.0001)      cg2d_init_res =   1.06299973608236E-01
(PID.TID 0000.0001)      cg2d_iters(min,last) =      -1      26
(PID.TID 0000.0001)      cg2d_last_res =   2.13450274153993E-05
(PID.TID 0000.0001) // =======================================================
(PID.TID 0000.0001) // Begin MONITOR dynamic field statistics
(PID.TID 0000.0001) // =======================================================
(PID.TID 0000.0001) %MON time_tsnumber                =                   280
(PID.TID 0000.0001) %MON time_secondsf                =   2.5200000000000E+05
(PID.TID 0000.0001) %MON dynstat_eta_max              =   1.0614242621492E+00
(PID.TID 0000.0001) %MON dynstat_eta_min              =  -1.8837910160713E+00
(PID.TID 0000.0001) %MON dynstat_eta_mean             =  -1.0473331365099E-03
(PID.TID 0000.0001) %MON dynstat_eta_sd               =   6.4830103124004E-01
(PID.TID 0000.0001) %MON dynstat_eta_del2             =   6.4503617289648E-05
(PID.TID 0000.0001) %MON dynstat_uvel_max             =   9.3312499630441E-01
(PID.TID 0000.0001) %MON dynstat_uvel_min             =  -8.6108842199962E-01
(PID.TID 0000.0001) %MON dynstat_uvel_mean            =   1.3903993660840E-03
(PID.TID 0000.0001) %MON dynstat_uvel_sd              =   1.9926103939851E-02
(PID.TID 0000.0001) %MON dynstat_uvel_del2            =   8.4943851084345E-06
(PID.TID 0000.0001) %MON dynstat_vvel_max             =   1.2020322697626E+00
(PID.TID 0000.0001) %MON dynstat_vvel_min             =  -8.7168157634275E-01
(PID.TID 0000.0001) %MON dynstat_vvel_mean            =   1.0052368415595E-03
(PID.TID 0000.0001) %MON dynstat_vvel_sd              =   2.0824063391067E-02
(PID.TID 0000.0001) %MON dynstat_vvel_del2            =   8.8355993814465E-06
(PID.TID 0000.0001) %MON dynstat_wvel_max             =   4.5750652412167E-04
(PID.TID 0000.0001) %MON dynstat_wvel_min             =  -7.8782793580639E-04
(PID.TID 0000.0001) %MON dynstat_wvel_mean            =   2.6870177170451E-08
(PID.TID 0000.0001) %MON dynstat_wvel_sd              =   2.1114815099478E-05
(PID.TID 0000.0001) %MON dynstat_wvel_del2            =   1.8814346033171E-08
(PID.TID 0000.0001) %MON dynstat_theta_max            =   3.2361174872904E+01
(PID.TID 0000.0001) %MON dynstat_theta_min            =  -2.0413738860866E+00
(PID.TID 0000.0001) %MON dynstat_theta_mean           =   3.5904087187808E+00
(PID.TID 0000.0001) %MON dynstat_theta_sd             =   4.4360798228740E+00
(PID.TID 0000.0001) %MON dynstat_theta_del2           =   9.7713180880670E-05
(PID.TID 0000.0001) %MON dynstat_salt_max             =   4.0711545891995E+01
(PID.TID 0000.0001) %MON dynstat_salt_min             =   1.2400989647345E+01
(PID.TID 0000.0001) %MON dynstat_salt_mean            =   3.4725581593351E+01
(PID.TID 0000.0001) %MON dynstat_salt_sd              =   3.7701362416385E-01
(PID.TID 0000.0001) %MON dynstat_salt_del2            =   3.3801390661302E-05
(PID.TID 0000.0001) %MON dynstat_sst_max              =   3.2361167245525E+01
(PID.TID 0000.0001) %MON dynstat_sst_min              =  -1.8136684171258E+00
(PID.TID 0000.0001) %MON dynstat_sst_mean             =   1.8480604559328E+01
(PID.TID 0000.0001) %MON dynstat_sst_sd               =   1.0160837548893E+01
(PID.TID 0000.0001) %MON dynstat_sst_del2             =   8.1887015593845E-04
(PID.TID 0000.0001) %MON dynstat_sss_max              =   3.9141329894058E+01
(PID.TID 0000.0001) %MON dynstat_sss_min              =   1.2400989647345E+01
(PID.TID 0000.0001) %MON dynstat_sss_mean             =   3.4697208839633E+01
(PID.TID 0000.0001) %MON dynstat_sss_sd               =   1.1483172098395E+00
(PID.TID 0000.0001) %MON dynstat_sss_del2             =   1.0069862086405E-03
(PID.TID 0000.0001) %MON forcing_qnet_max             =   8.8327549811697E+02
(PID.TID 0000.0001) %MON forcing_qnet_min             =  -1.3506451294149E+03
(PID.TID 0000.0001) %MON forcing_qnet_mean            =  -1.3282156988525E+01
(PID.TID 0000.0001) %MON forcing_qnet_sd              =   1.9103474327675E+02
(PID.TID 0000.0001) %MON forcing_qnet_del2            =   3.3413042252164E-01
(PID.TID 0000.0001) %MON forcing_qsw_max              =   0.0000000000000E+00
(PID.TID 0000.0001) %MON forcing_qsw_min              =  -1.0852051581854E+02
(PID.TID 0000.0001) %MON forcing_qsw_mean             =  -2.0283373685493E+01
(PID.TID 0000.0001) %MON forcing_qsw_sd               =   2.9735526321296E+01
(PID.TID 0000.0001) %MON forcing_qsw_del2             =   2.0685263214851E-02
(PID.TID 0000.0001) %MON forcing_empmr_max            =   9.2800566926599E-04
(PID.TID 0000.0001) %MON forcing_empmr_min            =  -6.4807750284672E-02
(PID.TID 0000.0001) %MON forcing_empmr_mean           =  -5.6907440520190E-06
(PID.TID 0000.0001) %MON forcing_empmr_sd             =   2.9135651252278E-04
(PID.TID 0000.0001) %MON forcing_empmr_del2           =   3.1802643571230E-06
(PID.TID 0000.0001) %MON forcing_fu_max               =   7.0731651782989E-01
(PID.TID 0000.0001) %MON forcing_fu_min               =  -5.5309638381004E-01
(PID.TID 0000.0001) %MON forcing_fu_mean              =   4.9749628536758E-03
(PID.TID 0000.0001) %MON forcing_fu_sd                =   8.6867141652726E-02
(PID.TID 0000.0001) %MON forcing_fu_del2              =   1.0437877424279E-04
(PID.TID 0000.0001) %MON forcing_fv_max               =   9.3990519642830E-01
(PID.TID 0000.0001) %MON forcing_fv_min               =  -7.6597306132317E-01
(PID.TID 0000.0001) %MON forcing_fv_mean              =  -5.2452030288480E-03
(PID.TID 0000.0001) %MON forcing_fv_sd                =   1.0763788705482E-01
(PID.TID 0000.0001) %MON forcing_fv_del2              =   1.3323759671965E-04
(PID.TID 0000.0001) %MON trAdv_CFL_u_max              =   1.6180078071474E-02
(PID.TID 0000.0001) %MON trAdv_CFL_v_max              =   2.0781146603892E-02
(PID.TID 0000.0001) %MON trAdv_CFL_w_max              =   3.0296669230142E-02
(PID.TID 0000.0001) %MON advcfl_uvel_max              =   1.6898788525409E-02
(PID.TID 0000.0001) %MON advcfl_vvel_max              =   2.1337159629521E-02
(PID.TID 0000.0001) %MON advcfl_wvel_max              =   3.0600748112781E-02
(PID.TID 0000.0001) %MON advcfl_W_hf_max              =   3.0795025086003E-02
(PID.TID 0000.0001) %MON pe_b_mean                    =   5.5285718612817E-04
(PID.TID 0000.0001) %MON ke_max                       =   7.1832312134609E-01
(PID.TID 0000.0001) %MON ke_mean                      =   4.0197398385690E-04
(PID.TID 0000.0001) %MON ke_vol                       =   1.3349975001976E+18
(PID.TID 0000.0001) %MON vort_r_min                   =  -2.2748766841221E-05
(PID.TID 0000.0001) %MON vort_r_max                   =   3.4179079598363E-05
(PID.TID 0000.0001) %MON vort_a_mean                  =  -1.9727864647440E-05
(PID.TID 0000.0001) %MON vort_a_sd                    =   7.4542951989312E-05
(PID.TID 0000.0001) %MON vort_p_mean                  =  -2.1760537373413E-05
(PID.TID 0000.0001) %MON vort_p_sd                    =   9.7246894540582E-05
(PID.TID 0000.0001) %MON surfExpan_theta_mean         =   2.5038857914566E-07
(PID.TID 0000.0001) %MON surfExpan_salt_mean          =   2.3448386931544E-08
(PID.TID 0000.0001) // =======================================================
(PID.TID 0000.0001) // End MONITOR dynamic field statistics
(PID.TID 0000.0001) // =======================================================
(PID.TID 0000.0001) // =======================================================
(PID.TID 0000.0001) // Begin MONITOR SEAICE statistics
(PID.TID 0000.0001) // =======================================================
(PID.TID 0000.0001) %MON seaice_tsnumber              =                   280
(PID.TID 0000.0001) %MON seaice_time_sec              =   2.5200000000000E+05
(PID.TID 0000.0001) %MON seaice_uice_max              =   4.0000000000000E-01
(PID.TID 0000.0001) %MON seaice_uice_min              =  -4.0000000000000E-01
(PID.TID 0000.0001) %MON seaice_uice_mean             =  -8.3054598624025E-03
(PID.TID 0000.0001) %MON seaice_uice_sd               =   1.9802383574176E-01
(PID.TID 0000.0001) %MON seaice_uice_del2             =   2.2931571122150E-04
(PID.TID 0000.0001) %MON seaice_vice_max              =   4.0000000000000E-01
(PID.TID 0000.0001) %MON seaice_vice_min              =  -4.0000000000000E-01
(PID.TID 0000.0001) %MON seaice_vice_mean             =  -2.1960776359499E-02
(PID.TID 0000.0001) %MON seaice_vice_sd               =   2.1302038025672E-01
(PID.TID 0000.0001) %MON seaice_vice_del2             =   2.3932563818061E-04
(PID.TID 0000.0001) %MON seaice_area_max              =   1.0000000000000E+00
(PID.TID 0000.0001) %MON seaice_area_min              =   0.0000000000000E+00
(PID.TID 0000.0001) %MON seaice_area_mean             =   6.8261533837168E-02
(PID.TID 0000.0001) %MON seaice_area_sd               =   2.3411708877737E-01
(PID.TID 0000.0001) %MON seaice_area_del2             =   4.3369866682867E-04
(PID.TID 0000.0001) %MON seaice_heff_max              =   2.5158709569369E+01
(PID.TID 0000.0001) %MON seaice_heff_min              =   0.0000000000000E+00
(PID.TID 0000.0001) %MON seaice_heff_mean             =   2.1516916125820E-01
(PID.TID 0000.0001) %MON seaice_heff_sd               =   1.0693566212692E+00
(PID.TID 0000.0001) %MON seaice_heff_del2             =   3.8904051920830E-03
(PID.TID 0000.0001) %MON seaice_hsnow_max             =   8.3095256446686E+00
(PID.TID 0000.0001) %MON seaice_hsnow_min             =   0.0000000000000E+00
(PID.TID 0000.0001) %MON seaice_hsnow_mean            =   2.4382080759680E-02
(PID.TID 0000.0001) %MON seaice_hsnow_sd              =   1.5716303009185E-01
(PID.TID 0000.0001) %MON seaice_hsnow_del2            =   1.2493319811864E-03
(PID.TID 0000.0001) // =======================================================
(PID.TID 0000.0001) // End MONITOR SEAICE statistics
(PID.TID 0000.0001) // =======================================================
 Computing Diagnostic #     86  oceQnet      Counter:       4   Parms: SM      U1      
 Computing Diagnostic #     87  oceQsw       Counter:       4   Parms: SM      U1      
 Computing Diagnostic #     84  oceFWflx     Counter:       4   Parms: SM      U1      
 Computing Diagnostic #     85  oceSflux     Counter:       4   Parms: SM      U1      
 Computing Diagnostic #     80  oceTAUX      Counter:       4   Parms: UU      U1      
           Vector  Mate for  oceTAUX      Diagnostic #     81  oceTAUY  exists 
 Computing Diagnostic #     81  oceTAUY      Counter:       4   Parms: VV      U1      
           Vector  Mate for  oceTAUY      Diagnostic #     80  oceTAUX  exists 
 Computing Diagnostic #     26  THETA        Counter:       4   Parms: SMR     MR      
 Computing Diagnostic #     27  SALT         Counter:       4   Parms: SMR     MR      
 Computing Diagnostic #     30  UVEL         Counter:       4   Parms: UUR     MR      
           Vector  Mate for  UVEL         Diagnostic #     31  VVEL     exists 
 Computing Diagnostic #     31  VVEL         Counter:       4   Parms: VVR     MR      
           Vector  Mate for  VVEL         Diagnostic #     30  UVEL     exists 
 Computing Diagnostic #    214  SIarea       Counter:       4   Parms: SM      M1      
 Computing Diagnostic #    217  SIheff       Counter:       4   Parms: SM      M1      
 Computing Diagnostic #    219  SIhsnow      Counter:       4   Parms: SM      M1      
 Computing Diagnostic #     83  sIceLoad     Counter:       4   Parms: SM      U1      
 Computing Diagnostic #    223  SIuice       Counter:       4   Parms: UU      M1      
           Vector  Mate for  SIuice       Diagnostic #    224  SIvice   exists 
 Computing Diagnostic #    224  SIvice       Counter:       4   Parms: VV      M1      
           Vector  Mate for  SIvice       Diagnostic #    223  SIuice   exists 
 Computing Diagnostic #    225  SItaux       Counter:       4   Parms: UU      U1      
           Vector  Mate for  SItaux       Diagnostic #    226  SItauy   exists 
 Computing Diagnostic #    226  SItauy       Counter:       4   Parms: VV      U1      
           Vector  Mate for  SItauy       Diagnostic #    225  SItaux   exists 
 Computing Diagnostic #    285  SIareaN      Counter:       4   Parms: SM      MX      
 Computing Diagnostic #    284  SIheffN      Counter:       4   Parms: SM      MX      
 Computing Diagnostic #    286  SIhsnowN     Counter:       4   Parms: SM      MX      
 Compute Stats, Diag. #    214  SIarea    vol(   0 ): 3.580E+14  Parms: SM      M1      
 Compute Stats, Diag. #    217  SIheff    vol(   0 ): 3.580E+14  Parms: SM      M1      
 Compute Stats, Diag. #    219  SIhsnow   vol(   0 ): 3.580E+14  Parms: SM      M1      
 Compute Stats, Diag. #     83  sIceLoad  vol(   0 ): 3.580E+14  Parms: SM      U1      
 Compute Stats, Diag. #    223  SIuice    vol(   0 ): 3.513E+14  Parms: UU      M1      
 Compute Stats, Diag. #    224  SIvice    vol(   0 ): 3.508E+14  Parms: VV      M1      
 Compute Stats, Diag. #    225  SItaux    vol(   0 ): 3.513E+14  Parms: UU      U1      
 Compute Stats, Diag. #    226  SItauy    vol(   0 ): 3.508E+14  Parms: VV      U1      
 cg2d: Sum(rhs),rhsMax =   3.29542867921449E+01  2.92445577119166E-01
 Compute Stats, Diag. #    214  SIarea    vol(   0 ): 3.580E+14  Parms: SM      M1      
 Compute Stats, Diag. #    217  SIheff    vol(   0 ): 3.580E+14  Parms: SM      M1      
 Compute Stats, Diag. #    219  SIhsnow   vol(   0 ): 3.580E+14  Parms: SM      M1      
 Compute Stats, Diag. #     83  sIceLoad  vol(   0 ): 3.580E+14  Parms: SM      U1      
 Compute Stats, Diag. #    223  SIuice    vol(   0 ): 3.513E+14  Parms: UU      M1      
 Compute Stats, Diag. #    224  SIvice    vol(   0 ): 3.508E+14  Parms: VV      M1      
 Compute Stats, Diag. #    225  SItaux    vol(   0 ): 3.513E+14  Parms: UU      U1      
 Compute Stats, Diag. #    226  SItauy    vol(   0 ): 3.508E+14  Parms: VV      U1      
 cg2d: Sum(rhs),rhsMax =   3.27955998910247E+01  2.92383409594078E-01
 Compute Stats, Diag. #    214  SIarea    vol(   0 ): 3.580E+14  Parms: SM      M1      
 Compute Stats, Diag. #    217  SIheff    vol(   0 ): 3.580E+14  Parms: SM      M1      
 Compute Stats, Diag. #    219  SIhsnow   vol(   0 ): 3.580E+14  Parms: SM      M1      
 Compute Stats, Diag. #     83  sIceLoad  vol(   0 ): 3.580E+14  Parms: SM      U1      
 Compute Stats, Diag. #    223  SIuice    vol(   0 ): 3.513E+14  Parms: UU      M1      
 Compute Stats, Diag. #    224  SIvice    vol(   0 ): 3.508E+14  Parms: VV      M1      
 Compute Stats, Diag. #    225  SItaux    vol(   0 ): 3.513E+14  Parms: UU      U1      
 Compute Stats, Diag. #    226  SItauy    vol(   0 ): 3.508E+14  Parms: VV      U1      
 cg2d: Sum(rhs),rhsMax =   3.26400268899226E+01  2.92314249720236E-01
 Compute Stats, Diag. #    214  SIarea    vol(   0 ): 3.580E+14  Parms: SM      M1      
 Compute Stats, Diag. #    217  SIheff    vol(   0 ): 3.580E+14  Parms: SM      M1      
 Compute Stats, Diag. #    219  SIhsnow   vol(   0 ): 3.580E+14  Parms: SM      M1      
 Compute Stats, Diag. #     83  sIceLoad  vol(   0 ): 3.580E+14  Parms: SM      U1      
 Compute Stats, Diag. #    223  SIuice    vol(   0 ): 3.513E+14  Parms: UU      M1      
 Compute Stats, Diag. #    224  SIvice    vol(   0 ): 3.508E+14  Parms: VV      M1      
 Compute Stats, Diag. #    225  SItaux    vol(   0 ): 3.513E+14  Parms: UU      U1      
 Compute Stats, Diag. #    226  SItauy    vol(   0 ): 3.508E+14  Parms: VV      U1      
 cg2d: Sum(rhs),rhsMax =   3.24792205228090E+01  2.92239649188957E-01
 Computing Diagnostic #     86  oceQnet      Counter:       4   Parms: SM      U1      
 Computing Diagnostic #     87  oceQsw       Counter:       4   Parms: SM      U1      
 Computing Diagnostic #     84  oceFWflx     Counter:       4   Parms: SM      U1      
 Computing Diagnostic #     85  oceSflux     Counter:       4   Parms: SM      U1      
 Computing Diagnostic #     80  oceTAUX      Counter:       4   Parms: UU      U1      
           Vector  Mate for  oceTAUX      Diagnostic #     81  oceTAUY  exists 
 Computing Diagnostic #     81  oceTAUY      Counter:       4   Parms: VV      U1      
           Vector  Mate for  oceTAUY      Diagnostic #     80  oceTAUX  exists 
 Computing Diagnostic #     26  THETA        Counter:       4   Parms: SMR     MR      
 Computing Diagnostic #     27  SALT         Counter:       4   Parms: SMR     MR      
 Computing Diagnostic #     30  UVEL         Counter:       4   Parms: UUR     MR      
           Vector  Mate for  UVEL         Diagnostic #     31  VVEL     exists 
 Computing Diagnostic #     31  VVEL         Counter:       4   Parms: VVR     MR      
           Vector  Mate for  VVEL         Diagnostic #     30  UVEL     exists 
 Computing Diagnostic #    214  SIarea       Counter:       4   Parms: SM      M1      
 Computing Diagnostic #    217  SIheff       Counter:       4   Parms: SM      M1      
 Computing Diagnostic #    219  SIhsnow      Counter:       4   Parms: SM      M1      
 Computing Diagnostic #     83  sIceLoad     Counter:       4   Parms: SM      U1      
 Computing Diagnostic #    223  SIuice       Counter:       4   Parms: UU      M1      
           Vector  Mate for  SIuice       Diagnostic #    224  SIvice   exists 
 Computing Diagnostic #    224  SIvice       Counter:       4   Parms: VV      M1      
           Vector  Mate for  SIvice       Diagnostic #    223  SIuice   exists 
 Computing Diagnostic #    225  SItaux       Counter:       4   Parms: UU      U1      
           Vector  Mate for  SItaux       Diagnostic #    226  SItauy   exists 
 Computing Diagnostic #    226  SItauy       Counter:       4   Parms: VV      U1      
           Vector  Mate for  SItauy       Diagnostic #    225  SItaux   exists 
 Computing Diagnostic #    285  SIareaN      Counter:       4   Parms: SM      MX      
 Computing Diagnostic #    284  SIheffN      Counter:       4   Parms: SM      MX      
 Computing Diagnostic #    286  SIhsnowN     Counter:       4   Parms: SM      MX      
 Compute Stats, Diag. #    214  SIarea    vol(   0 ): 3.580E+14  Parms: SM      M1      
 Compute Stats, Diag. #    217  SIheff    vol(   0 ): 3.580E+14  Parms: SM      M1      
 Compute Stats, Diag. #    219  SIhsnow   vol(   0 ): 3.580E+14  Parms: SM      M1      
 Compute Stats, Diag. #     83  sIceLoad  vol(   0 ): 3.580E+14  Parms: SM      U1      
 Compute Stats, Diag. #    223  SIuice    vol(   0 ): 3.513E+14  Parms: UU      M1      
 Compute Stats, Diag. #    224  SIvice    vol(   0 ): 3.508E+14  Parms: VV      M1      
 Compute Stats, Diag. #    225  SItaux    vol(   0 ): 3.513E+14  Parms: UU      U1      
 Compute Stats, Diag. #    226  SItauy    vol(   0 ): 3.508E+14  Parms: VV      U1      
 cg2d: Sum(rhs),rhsMax =   3.23204992220776E+01  2.92159329153860E-01
 Compute Stats, Diag. #    214  SIarea    vol(   0 ): 3.580E+14  Parms: SM      M1      
 Compute Stats, Diag. #    217  SIheff    vol(   0 ): 3.580E+14  Parms: SM      M1      
 Compute Stats, Diag. #    219  SIhsnow   vol(   0 ): 3.580E+14  Parms: SM      M1      
 Compute Stats, Diag. #     83  sIceLoad  vol(   0 ): 3.580E+14  Parms: SM      U1      
 Compute Stats, Diag. #    223  SIuice    vol(   0 ): 3.513E+14  Parms: UU      M1      
 Compute Stats, Diag. #    224  SIvice    vol(   0 ): 3.508E+14  Parms: VV      M1      
 Compute Stats, Diag. #    225  SItaux    vol(   0 ): 3.513E+14  Parms: UU      U1      
 Compute Stats, Diag. #    226  SItauy    vol(   0 ): 3.508E+14  Parms: VV      U1      
 cg2d: Sum(rhs),rhsMax =   3.21734814026672E+01  2.92075310192445E-01
 Compute Stats, Diag. #    214  SIarea    vol(   0 ): 3.580E+14  Parms: SM      M1      
 Compute Stats, Diag. #    217  SIheff    vol(   0 ): 3.580E+14  Parms: SM      M1      
 Compute Stats, Diag. #    219  SIhsnow   vol(   0 ): 3.580E+14  Parms: SM      M1      
 Compute Stats, Diag. #     83  sIceLoad  vol(   0 ): 3.580E+14  Parms: SM      U1      
 Compute Stats, Diag. #    223  SIuice    vol(   0 ): 3.513E+14  Parms: UU      M1      
 Compute Stats, Diag. #    224  SIvice    vol(   0 ): 3.508E+14  Parms: VV      M1      
 Compute Stats, Diag. #    225  SItaux    vol(   0 ): 3.513E+14  Parms: UU      U1      
 Compute Stats, Diag. #    226  SItauy    vol(   0 ): 3.508E+14  Parms: VV      U1      
 cg2d: Sum(rhs),rhsMax =   3.20112267038828E+01  2.91988361260483E-01
 Compute Stats, Diag. #    214  SIarea    vol(   0 ): 3.580E+14  Parms: SM      M1      
 Compute Stats, Diag. #    217  SIheff    vol(   0 ): 3.580E+14  Parms: SM      M1      
 Compute Stats, Diag. #    219  SIhsnow   vol(   0 ): 3.580E+14  Parms: SM      M1      
 Compute Stats, Diag. #     83  sIceLoad  vol(   0 ): 3.580E+14  Parms: SM      U1      
 Compute Stats, Diag. #    223  SIuice    vol(   0 ): 3.513E+14  Parms: UU      M1      
 Compute Stats, Diag. #    224  SIvice    vol(   0 ): 3.508E+14  Parms: VV      M1      
 Compute Stats, Diag. #    225  SItaux    vol(   0 ): 3.513E+14  Parms: UU      U1      
 Compute Stats, Diag. #    226  SItauy    vol(   0 ): 3.508E+14  Parms: VV      U1      
 cg2d: Sum(rhs),rhsMax =   3.18594612959414E+01  2.91898975911680E-01
(PID.TID 0000.0001)      cg2d_init_res =   1.10412905542454E-01
(PID.TID 0000.0001)      cg2d_iters(min,last) =      -1      26
(PID.TID 0000.0001)      cg2d_last_res =   2.46862436553635E-05
(PID.TID 0000.0001) // =======================================================
(PID.TID 0000.0001) // Begin MONITOR dynamic field statistics
(PID.TID 0000.0001) // =======================================================
(PID.TID 0000.0001) %MON time_tsnumber                =                   288
(PID.TID 0000.0001) %MON time_secondsf                =   2.5920000000000E+05
(PID.TID 0000.0001) %MON dynstat_eta_max              =   1.0591964559310E+00
(PID.TID 0000.0001) %MON dynstat_eta_min              =  -1.8865941135692E+00
(PID.TID 0000.0001) %MON dynstat_eta_mean             =  -1.0078165131586E-03
(PID.TID 0000.0001) %MON dynstat_eta_sd               =   6.4757103923189E-01
(PID.TID 0000.0001) %MON dynstat_eta_del2             =   6.4040215925094E-05
(PID.TID 0000.0001) %MON dynstat_uvel_max             =   9.3943751499343E-01
(PID.TID 0000.0001) %MON dynstat_uvel_min             =  -8.4663659442614E-01
(PID.TID 0000.0001) %MON dynstat_uvel_mean            =   1.3727404826935E-03
(PID.TID 0000.0001) %MON dynstat_uvel_sd              =   1.9849667945668E-02
(PID.TID 0000.0001) %MON dynstat_uvel_del2            =   8.4266276564337E-06
(PID.TID 0000.0001) %MON dynstat_vvel_max             =   1.2002095609093E+00
(PID.TID 0000.0001) %MON dynstat_vvel_min             =  -8.6706625763699E-01
(PID.TID 0000.0001) %MON dynstat_vvel_mean            =   1.0443474269532E-03
(PID.TID 0000.0001) %MON dynstat_vvel_sd              =   2.0856994661148E-02
(PID.TID 0000.0001) %MON dynstat_vvel_del2            =   8.7625561145960E-06
(PID.TID 0000.0001) %MON dynstat_wvel_max             =   4.4144378187212E-04
(PID.TID 0000.0001) %MON dynstat_wvel_min             =  -7.7880111369319E-04
(PID.TID 0000.0001) %MON dynstat_wvel_mean            =   2.6975771340125E-08
(PID.TID 0000.0001) %MON dynstat_wvel_sd              =   2.1029943782480E-05
(PID.TID 0000.0001) %MON dynstat_wvel_del2            =   1.8426249907680E-08
(PID.TID 0000.0001) %MON dynstat_theta_max            =   3.2346886242511E+01
(PID.TID 0000.0001) %MON dynstat_theta_min            =  -2.0415895388971E+00
(PID.TID 0000.0001) %MON dynstat_theta_mean           =   3.5904176353006E+00
(PID.TID 0000.0001) %MON dynstat_theta_sd             =   4.4361326744472E+00
(PID.TID 0000.0001) %MON dynstat_theta_del2           =   9.7581631728208E-05
(PID.TID 0000.0001) %MON dynstat_salt_max             =   4.0711545117701E+01
(PID.TID 0000.0001) %MON dynstat_salt_min             =   1.2045292836364E+01
(PID.TID 0000.0001) %MON dynstat_salt_mean            =   3.4725581143602E+01
(PID.TID 0000.0001) %MON dynstat_salt_sd              =   3.7701431416715E-01
(PID.TID 0000.0001) %MON dynstat_salt_del2            =   3.3705875285121E-05
(PID.TID 0000.0001) %MON dynstat_sst_max              =   3.2346878636362E+01
(PID.TID 0000.0001) %MON dynstat_sst_min              =  -1.8120837562296E+00
(PID.TID 0000.0001) %MON dynstat_sst_mean             =   1.8483236404065E+01
(PID.TID 0000.0001) %MON dynstat_sst_sd               =   1.0163498590192E+01
(PID.TID 0000.0001) %MON dynstat_sst_del2             =   8.1840314448792E-04
(PID.TID 0000.0001) %MON dynstat_sss_max              =   3.9138759680865E+01
(PID.TID 0000.0001) %MON dynstat_sss_min              =   1.2045292836364E+01
(PID.TID 0000.0001) %MON dynstat_sss_mean             =   3.4697352687132E+01
(PID.TID 0000.0001) %MON dynstat_sss_sd               =   1.1488318540883E+00
(PID.TID 0000.0001) %MON dynstat_sss_del2             =   1.0037067554273E-03
(PID.TID 0000.0001) %MON forcing_qnet_max             =   1.9529622802734E+03
(PID.TID 0000.0001) %MON forcing_qnet_min             =  -1.0939603466646E+03
(PID.TID 0000.0001) %MON forcing_qnet_mean            =  -2.3905896608753E+01
(PID.TID 0000.0001) %MON forcing_qnet_sd              =   2.0280864290896E+02
(PID.TID 0000.0001) %MON forcing_qnet_del2            =   3.4918555314843E-01
(PID.TID 0000.0001) %MON forcing_qsw_max              =   0.0000000000000E+00
(PID.TID 0000.0001) %MON forcing_qsw_min              =  -1.1053637735301E+02
(PID.TID 0000.0001) %MON forcing_qsw_mean             =  -2.2192569731262E+01
(PID.TID 0000.0001) %MON forcing_qsw_sd               =   3.1026612993148E+01
(PID.TID 0000.0001) %MON forcing_qsw_del2             =   1.9754496251013E-02
(PID.TID 0000.0001) %MON forcing_empmr_max            =   1.0542806703597E-03
(PID.TID 0000.0001) %MON forcing_empmr_min            =  -6.5045543015003E-02
(PID.TID 0000.0001) %MON forcing_empmr_mean           =  -5.4889427465660E-06
(PID.TID 0000.0001) %MON forcing_empmr_sd             =   2.9591523822076E-04
(PID.TID 0000.0001) %MON forcing_empmr_del2           =   3.2264704141417E-06
(PID.TID 0000.0001) %MON forcing_fu_max               =   7.2651448845863E-01
(PID.TID 0000.0001) %MON forcing_fu_min               =  -5.1323705911636E-01
(PID.TID 0000.0001) %MON forcing_fu_mean              =   5.0898978122037E-03
(PID.TID 0000.0001) %MON forcing_fu_sd                =   8.7094293958516E-02
(PID.TID 0000.0001) %MON forcing_fu_del2              =   1.0551593207017E-04
(PID.TID 0000.0001) %MON forcing_fv_max               =   8.9621487259865E-01
(PID.TID 0000.0001) %MON forcing_fv_min               =  -7.4396553635597E-01
(PID.TID 0000.0001) %MON forcing_fv_mean              =  -4.6293763952847E-03
(PID.TID 0000.0001) %MON forcing_fv_sd                =   1.0714751894257E-01
(PID.TID 0000.0001) %MON forcing_fv_del2              =   1.3217210509062E-04
(PID.TID 0000.0001) %MON trAdv_CFL_u_max              =   1.5296463297902E-02
(PID.TID 0000.0001) %MON trAdv_CFL_v_max              =   2.0718473988527E-02
(PID.TID 0000.0001) %MON trAdv_CFL_w_max              =   2.8837497846644E-02
(PID.TID 0000.0001) %MON advcfl_uvel_max              =   1.5973061704942E-02
(PID.TID 0000.0001) %MON advcfl_vvel_max              =   2.1304804899337E-02
(PID.TID 0000.0001) %MON advcfl_wvel_max              =   2.9156891996532E-02
(PID.TID 0000.0001) %MON advcfl_W_hf_max              =   2.9335747468621E-02
(PID.TID 0000.0001) %MON pe_b_mean                    =   5.5161273464977E-04
(PID.TID 0000.0001) %MON ke_max                       =   7.1897141922126E-01
(PID.TID 0000.0001) %MON ke_mean                      =   4.0118531015705E-04
(PID.TID 0000.0001) %MON ke_vol                       =   1.3349975144083E+18
(PID.TID 0000.0001) %MON vort_r_min                   =  -2.2617099997367E-05
(PID.TID 0000.0001) %MON vort_r_max                   =   3.4060350625494E-05
(PID.TID 0000.0001) %MON vort_a_mean                  =  -1.9727864647440E-05
(PID.TID 0000.0001) %MON vort_a_sd                    =   7.4542944926645E-05
(PID.TID 0000.0001) %MON vort_p_mean                  =  -2.1760537369153E-05
(PID.TID 0000.0001) %MON vort_p_sd                    =   9.7246896529748E-05
(PID.TID 0000.0001) %MON surfExpan_theta_mean         =   3.1997022175488E-07
(PID.TID 0000.0001) %MON surfExpan_salt_mean          =   3.2278134673252E-08
(PID.TID 0000.0001) // =======================================================
(PID.TID 0000.0001) // End MONITOR dynamic field statistics
(PID.TID 0000.0001) // =======================================================
(PID.TID 0000.0001) // =======================================================
(PID.TID 0000.0001) // Begin MONITOR SEAICE statistics
(PID.TID 0000.0001) // =======================================================
(PID.TID 0000.0001) %MON seaice_tsnumber              =                   288
(PID.TID 0000.0001) %MON seaice_time_sec              =   2.5920000000000E+05
(PID.TID 0000.0001) %MON seaice_uice_max              =   4.0000000000000E-01
(PID.TID 0000.0001) %MON seaice_uice_min              =  -4.0000000000000E-01
(PID.TID 0000.0001) %MON seaice_uice_mean             =  -8.3054598624025E-03
(PID.TID 0000.0001) %MON seaice_uice_sd               =   1.9802383574176E-01
(PID.TID 0000.0001) %MON seaice_uice_del2             =   2.2931571122150E-04
(PID.TID 0000.0001) %MON seaice_vice_max              =   4.0000000000000E-01
(PID.TID 0000.0001) %MON seaice_vice_min              =  -4.0000000000000E-01
(PID.TID 0000.0001) %MON seaice_vice_mean             =  -2.1960776359499E-02
(PID.TID 0000.0001) %MON seaice_vice_sd               =   2.1302038025672E-01
(PID.TID 0000.0001) %MON seaice_vice_del2             =   2.3932563818061E-04
(PID.TID 0000.0001) %MON seaice_area_max              =   1.0000000000000E+00
(PID.TID 0000.0001) %MON seaice_area_min              =   0.0000000000000E+00
(PID.TID 0000.0001) %MON seaice_area_mean             =   6.8213135175281E-02
(PID.TID 0000.0001) %MON seaice_area_sd               =   2.3403571719668E-01
(PID.TID 0000.0001) %MON seaice_area_del2             =   4.3259599500029E-04
(PID.TID 0000.0001) %MON seaice_heff_max              =   2.5155058635632E+01
(PID.TID 0000.0001) %MON seaice_heff_min              =   0.0000000000000E+00
(PID.TID 0000.0001) %MON seaice_heff_mean             =   2.1511341639475E-01
(PID.TID 0000.0001) %MON seaice_heff_sd               =   1.0692848466007E+00
(PID.TID 0000.0001) %MON seaice_heff_del2             =   3.8893791738310E-03
(PID.TID 0000.0001) %MON seaice_hsnow_max             =   8.3083203598217E+00
(PID.TID 0000.0001) %MON seaice_hsnow_min             =   0.0000000000000E+00
(PID.TID 0000.0001) %MON seaice_hsnow_mean            =   2.4377789539641E-02
(PID.TID 0000.0001) %MON seaice_hsnow_sd              =   1.5714026803914E-01
(PID.TID 0000.0001) %MON seaice_hsnow_del2            =   1.2490845225303E-03
(PID.TID 0000.0001) // =======================================================
(PID.TID 0000.0001) // End MONITOR SEAICE statistics
(PID.TID 0000.0001) // =======================================================
 Computing Diagnostic #     86  oceQnet      Counter:       4   Parms: SM      U1      
 Computing Diagnostic #     87  oceQsw       Counter:       4   Parms: SM      U1      
 Computing Diagnostic #     84  oceFWflx     Counter:       4   Parms: SM      U1      
 Computing Diagnostic #     85  oceSflux     Counter:       4   Parms: SM      U1      
 Computing Diagnostic #     80  oceTAUX      Counter:       4   Parms: UU      U1      
           Vector  Mate for  oceTAUX      Diagnostic #     81  oceTAUY  exists 
 Computing Diagnostic #     81  oceTAUY      Counter:       4   Parms: VV      U1      
           Vector  Mate for  oceTAUY      Diagnostic #     80  oceTAUX  exists 
 Computing Diagnostic #     26  THETA        Counter:       4   Parms: SMR     MR      
 Computing Diagnostic #     27  SALT         Counter:       4   Parms: SMR     MR      
 Computing Diagnostic #     30  UVEL         Counter:       4   Parms: UUR     MR      
           Vector  Mate for  UVEL         Diagnostic #     31  VVEL     exists 
 Computing Diagnostic #     31  VVEL         Counter:       4   Parms: VVR     MR      
           Vector  Mate for  VVEL         Diagnostic #     30  UVEL     exists 
 Computing Diagnostic #    214  SIarea       Counter:       4   Parms: SM      M1      
 Computing Diagnostic #    217  SIheff       Counter:       4   Parms: SM      M1      
 Computing Diagnostic #    219  SIhsnow      Counter:       4   Parms: SM      M1      
 Computing Diagnostic #     83  sIceLoad     Counter:       4   Parms: SM      U1      
 Computing Diagnostic #    223  SIuice       Counter:       4   Parms: UU      M1      
           Vector  Mate for  SIuice       Diagnostic #    224  SIvice   exists 
 Computing Diagnostic #    224  SIvice       Counter:       4   Parms: VV      M1      
           Vector  Mate for  SIvice       Diagnostic #    223  SIuice   exists 
 Computing Diagnostic #    225  SItaux       Counter:       4   Parms: UU      U1      
           Vector  Mate for  SItaux       Diagnostic #    226  SItauy   exists 
 Computing Diagnostic #    226  SItauy       Counter:       4   Parms: VV      U1      
           Vector  Mate for  SItauy       Diagnostic #    225  SItaux   exists 
 Computing Diagnostic #    285  SIareaN      Counter:       4   Parms: SM      MX      
 Computing Diagnostic #    284  SIheffN      Counter:       4   Parms: SM      MX      
 Computing Diagnostic #    286  SIhsnowN     Counter:       4   Parms: SM      MX      
 Compute Stats, Diag. #    214  SIarea    vol(   0 ): 3.580E+14  Parms: SM      M1      
 Compute Stats, Diag. #    217  SIheff    vol(   0 ): 3.580E+14  Parms: SM      M1      
 Compute Stats, Diag. #    219  SIhsnow   vol(   0 ): 3.580E+14  Parms: SM      M1      
 Compute Stats, Diag. #     83  sIceLoad  vol(   0 ): 3.580E+14  Parms: SM      U1      
 Compute Stats, Diag. #    223  SIuice    vol(   0 ): 3.513E+14  Parms: UU      M1      
 Compute Stats, Diag. #    224  SIvice    vol(   0 ): 3.508E+14  Parms: VV      M1      
 Compute Stats, Diag. #    225  SItaux    vol(   0 ): 3.513E+14  Parms: UU      U1      
 Compute Stats, Diag. #    226  SItauy    vol(   0 ): 3.508E+14  Parms: VV      U1      
 cg2d: Sum(rhs),rhsMax =   3.17202344226764E+01  2.91808423508253E-01
 Compute Stats, Diag. #    214  SIarea    vol(   0 ): 3.580E+14  Parms: SM      M1      
 Compute Stats, Diag. #    217  SIheff    vol(   0 ): 3.580E+14  Parms: SM      M1      
 Compute Stats, Diag. #    219  SIhsnow   vol(   0 ): 3.580E+14  Parms: SM      M1      
 Compute Stats, Diag. #     83  sIceLoad  vol(   0 ): 3.580E+14  Parms: SM      U1      
 Compute Stats, Diag. #    223  SIuice    vol(   0 ): 3.513E+14  Parms: UU      M1      
 Compute Stats, Diag. #    224  SIvice    vol(   0 ): 3.508E+14  Parms: VV      M1      
 Compute Stats, Diag. #    225  SItaux    vol(   0 ): 3.513E+14  Parms: UU      U1      
 Compute Stats, Diag. #    226  SItauy    vol(   0 ): 3.508E+14  Parms: VV      U1      
 cg2d: Sum(rhs),rhsMax =   3.15721006738410E+01  2.91717437645251E-01
 Compute Stats, Diag. #    214  SIarea    vol(   0 ): 3.580E+14  Parms: SM      M1      
 Compute Stats, Diag. #    217  SIheff    vol(   0 ): 3.580E+14  Parms: SM      M1      
 Compute Stats, Diag. #    219  SIhsnow   vol(   0 ): 3.580E+14  Parms: SM      M1      
 Compute Stats, Diag. #     83  sIceLoad  vol(   0 ): 3.580E+14  Parms: SM      U1      
 Compute Stats, Diag. #    223  SIuice    vol(   0 ): 3.513E+14  Parms: UU      M1      
 Compute Stats, Diag. #    224  SIvice    vol(   0 ): 3.508E+14  Parms: VV      M1      
 Compute Stats, Diag. #    225  SItaux    vol(   0 ): 3.513E+14  Parms: UU      U1      
 Compute Stats, Diag. #    226  SItauy    vol(   0 ): 3.508E+14  Parms: VV      U1      
 cg2d: Sum(rhs),rhsMax =   3.14364830276479E+01  2.91627976475982E-01
 Compute Stats, Diag. #    214  SIarea    vol(   0 ): 3.580E+14  Parms: SM      M1      
 Compute Stats, Diag. #    217  SIheff    vol(   0 ): 3.580E+14  Parms: SM      M1      
 Compute Stats, Diag. #    219  SIhsnow   vol(   0 ): 3.580E+14  Parms: SM      M1      
 Compute Stats, Diag. #     83  sIceLoad  vol(   0 ): 3.580E+14  Parms: SM      U1      
 Compute Stats, Diag. #    223  SIuice    vol(   0 ): 3.513E+14  Parms: UU      M1      
 Compute Stats, Diag. #    224  SIvice    vol(   0 ): 3.508E+14  Parms: VV      M1      
 Compute Stats, Diag. #    225  SItaux    vol(   0 ): 3.513E+14  Parms: UU      U1      
 Compute Stats, Diag. #    226  SItauy    vol(   0 ): 3.508E+14  Parms: VV      U1      
 cg2d: Sum(rhs),rhsMax =   3.13168108467778E+01  2.91540277082725E-01
 Computing Diagnostic #     86  oceQnet      Counter:       4   Parms: SM      U1      
 Computing Diagnostic #     87  oceQsw       Counter:       4   Parms: SM      U1      
 Computing Diagnostic #     84  oceFWflx     Counter:       4   Parms: SM      U1      
 Computing Diagnostic #     85  oceSflux     Counter:       4   Parms: SM      U1      
 Computing Diagnostic #     80  oceTAUX      Counter:       4   Parms: UU      U1      
           Vector  Mate for  oceTAUX      Diagnostic #     81  oceTAUY  exists 
 Computing Diagnostic #     81  oceTAUY      Counter:       4   Parms: VV      U1      
           Vector  Mate for  oceTAUY      Diagnostic #     80  oceTAUX  exists 
 Computing Diagnostic #     26  THETA        Counter:       4   Parms: SMR     MR      
 Computing Diagnostic #     27  SALT         Counter:       4   Parms: SMR     MR      
 Computing Diagnostic #     30  UVEL         Counter:       4   Parms: UUR     MR      
           Vector  Mate for  UVEL         Diagnostic #     31  VVEL     exists 
 Computing Diagnostic #     31  VVEL         Counter:       4   Parms: VVR     MR      
           Vector  Mate for  VVEL         Diagnostic #     30  UVEL     exists 
 Computing Diagnostic #    214  SIarea       Counter:       4   Parms: SM      M1      
 Computing Diagnostic #    217  SIheff       Counter:       4   Parms: SM      M1      
 Computing Diagnostic #    219  SIhsnow      Counter:       4   Parms: SM      M1      
 Computing Diagnostic #     83  sIceLoad     Counter:       4   Parms: SM      U1      
 Computing Diagnostic #    223  SIuice       Counter:       4   Parms: UU      M1      
           Vector  Mate for  SIuice       Diagnostic #    224  SIvice   exists 
 Computing Diagnostic #    224  SIvice       Counter:       4   Parms: VV      M1      
           Vector  Mate for  SIvice       Diagnostic #    223  SIuice   exists 
 Computing Diagnostic #    225  SItaux       Counter:       4   Parms: UU      U1      
           Vector  Mate for  SItaux       Diagnostic #    226  SItauy   exists 
 Computing Diagnostic #    226  SItauy       Counter:       4   Parms: VV      U1      
           Vector  Mate for  SItauy       Diagnostic #    225  SItaux   exists 
 Computing Diagnostic #    285  SIareaN      Counter:       4   Parms: SM      MX      
 Computing Diagnostic #    284  SIheffN      Counter:       4   Parms: SM      MX      
 Computing Diagnostic #    286  SIhsnowN     Counter:       4   Parms: SM      MX      
 Compute Stats, Diag. #    214  SIarea    vol(   0 ): 3.580E+14  Parms: SM      M1      
 Compute Stats, Diag. #    217  SIheff    vol(   0 ): 3.580E+14  Parms: SM      M1      
 Compute Stats, Diag. #    219  SIhsnow   vol(   0 ): 3.580E+14  Parms: SM      M1      
 Compute Stats, Diag. #     83  sIceLoad  vol(   0 ): 3.580E+14  Parms: SM      U1      
 Compute Stats, Diag. #    223  SIuice    vol(   0 ): 3.513E+14  Parms: UU      M1      
 Compute Stats, Diag. #    224  SIvice    vol(   0 ): 3.508E+14  Parms: VV      M1      
 Compute Stats, Diag. #    225  SItaux    vol(   0 ): 3.513E+14  Parms: UU      U1      
 Compute Stats, Diag. #    226  SItauy    vol(   0 ): 3.508E+14  Parms: VV      U1      
 cg2d: Sum(rhs),rhsMax =   3.11946375950641E+01  2.91454618990917E-01
 Compute Stats, Diag. #    214  SIarea    vol(   0 ): 3.580E+14  Parms: SM      M1      
 Compute Stats, Diag. #    217  SIheff    vol(   0 ): 3.580E+14  Parms: SM      M1      
 Compute Stats, Diag. #    219  SIhsnow   vol(   0 ): 3.580E+14  Parms: SM      M1      
 Compute Stats, Diag. #     83  sIceLoad  vol(   0 ): 3.580E+14  Parms: SM      U1      
 Compute Stats, Diag. #    223  SIuice    vol(   0 ): 3.513E+14  Parms: UU      M1      
 Compute Stats, Diag. #    224  SIvice    vol(   0 ): 3.508E+14  Parms: VV      M1      
 Compute Stats, Diag. #    225  SItaux    vol(   0 ): 3.513E+14  Parms: UU      U1      
 Compute Stats, Diag. #    226  SItauy    vol(   0 ): 3.508E+14  Parms: VV      U1      
 cg2d: Sum(rhs),rhsMax =   3.10812161619339E+01  2.91372768251669E-01
 Compute Stats, Diag. #    214  SIarea    vol(   0 ): 3.580E+14  Parms: SM      M1      
 Compute Stats, Diag. #    217  SIheff    vol(   0 ): 3.580E+14  Parms: SM      M1      
 Compute Stats, Diag. #    219  SIhsnow   vol(   0 ): 3.580E+14  Parms: SM      M1      
 Compute Stats, Diag. #     83  sIceLoad  vol(   0 ): 3.580E+14  Parms: SM      U1      
 Compute Stats, Diag. #    223  SIuice    vol(   0 ): 3.513E+14  Parms: UU      M1      
 Compute Stats, Diag. #    224  SIvice    vol(   0 ): 3.508E+14  Parms: VV      M1      
 Compute Stats, Diag. #    225  SItaux    vol(   0 ): 3.513E+14  Parms: UU      U1      
 Compute Stats, Diag. #    226  SItauy    vol(   0 ): 3.508E+14  Parms: VV      U1      
 cg2d: Sum(rhs),rhsMax =   3.09607199010787E+01  2.91295298425740E-01
 Compute Stats, Diag. #    214  SIarea    vol(   0 ): 3.580E+14  Parms: SM      M1      
 Compute Stats, Diag. #    217  SIheff    vol(   0 ): 3.580E+14  Parms: SM      M1      
 Compute Stats, Diag. #    219  SIhsnow   vol(   0 ): 3.580E+14  Parms: SM      M1      
 Compute Stats, Diag. #     83  sIceLoad  vol(   0 ): 3.580E+14  Parms: SM      U1      
 Compute Stats, Diag. #    223  SIuice    vol(   0 ): 3.513E+14  Parms: UU      M1      
 Compute Stats, Diag. #    224  SIvice    vol(   0 ): 3.508E+14  Parms: VV      M1      
 Compute Stats, Diag. #    225  SItaux    vol(   0 ): 3.513E+14  Parms: UU      U1      
 Compute Stats, Diag. #    226  SItauy    vol(   0 ): 3.508E+14  Parms: VV      U1      
 cg2d: Sum(rhs),rhsMax =   3.08518279498245E+01  2.91222923366636E-01
(PID.TID 0000.0001)      cg2d_init_res =   1.10179050167535E-01
(PID.TID 0000.0001)      cg2d_iters(min,last) =      -1      26
(PID.TID 0000.0001)      cg2d_last_res =   2.30975197762626E-05
(PID.TID 0000.0001) // =======================================================
(PID.TID 0000.0001) // Begin MONITOR dynamic field statistics
(PID.TID 0000.0001) // =======================================================
(PID.TID 0000.0001) %MON time_tsnumber                =                   296
(PID.TID 0000.0001) %MON time_secondsf                =   2.6640000000000E+05
(PID.TID 0000.0001) %MON dynstat_eta_max              =   1.0560760816278E+00
(PID.TID 0000.0001) %MON dynstat_eta_min              =  -1.8910228354950E+00
(PID.TID 0000.0001) %MON dynstat_eta_mean             =  -9.7594185225362E-04
(PID.TID 0000.0001) %MON dynstat_eta_sd               =   6.4692877261711E-01
(PID.TID 0000.0001) %MON dynstat_eta_del2             =   6.3429980857671E-05
(PID.TID 0000.0001) %MON dynstat_uvel_max             =   9.4309752797817E-01
(PID.TID 0000.0001) %MON dynstat_uvel_min             =  -8.2808263236125E-01
(PID.TID 0000.0001) %MON dynstat_uvel_mean            =   1.3265732869145E-03
(PID.TID 0000.0001) %MON dynstat_uvel_sd              =   1.9776554396643E-02
(PID.TID 0000.0001) %MON dynstat_uvel_del2            =   8.3496468548696E-06
(PID.TID 0000.0001) %MON dynstat_vvel_max             =   1.1992695817471E+00
(PID.TID 0000.0001) %MON dynstat_vvel_min             =  -8.6240782840788E-01
(PID.TID 0000.0001) %MON dynstat_vvel_mean            =   1.0733995444486E-03
(PID.TID 0000.0001) %MON dynstat_vvel_sd              =   2.0908610996900E-02
(PID.TID 0000.0001) %MON dynstat_vvel_del2            =   8.6908656698688E-06
(PID.TID 0000.0001) %MON dynstat_wvel_max             =   4.3789571954690E-04
(PID.TID 0000.0001) %MON dynstat_wvel_min             =  -7.8046610715994E-04
(PID.TID 0000.0001) %MON dynstat_wvel_mean            =   2.9522546082326E-08
(PID.TID 0000.0001) %MON dynstat_wvel_sd              =   2.0938537790031E-05
(PID.TID 0000.0001) %MON dynstat_wvel_del2            =   1.8075067988263E-08
(PID.TID 0000.0001) %MON dynstat_theta_max            =   3.2334279871102E+01
(PID.TID 0000.0001) %MON dynstat_theta_min            =  -2.0455227037915E+00
(PID.TID 0000.0001) %MON dynstat_theta_mean           =   3.5904307332038E+00
(PID.TID 0000.0001) %MON dynstat_theta_sd             =   4.4362069119785E+00
(PID.TID 0000.0001) %MON dynstat_theta_del2           =   9.7457288984117E-05
(PID.TID 0000.0001) %MON dynstat_salt_max             =   4.0711545024721E+01
(PID.TID 0000.0001) %MON dynstat_salt_min             =   1.1883666312896E+01
(PID.TID 0000.0001) %MON dynstat_salt_mean            =   3.4725580756925E+01
(PID.TID 0000.0001) %MON dynstat_salt_sd              =   3.7701459379428E-01
(PID.TID 0000.0001) %MON dynstat_salt_del2            =   3.3547111016960E-05
(PID.TID 0000.0001) %MON dynstat_sst_max              =   3.2334279487650E+01
(PID.TID 0000.0001) %MON dynstat_sst_min              =  -1.8105906817206E+00
(PID.TID 0000.0001) %MON dynstat_sst_mean             =   1.8486803638741E+01
(PID.TID 0000.0001) %MON dynstat_sst_sd               =   1.0166901215945E+01
(PID.TID 0000.0001) %MON dynstat_sst_del2             =   8.1840117142932E-04
(PID.TID 0000.0001) %MON dynstat_sss_max              =   3.9136482170901E+01
(PID.TID 0000.0001) %MON dynstat_sss_min              =   1.1883666312896E+01
(PID.TID 0000.0001) %MON dynstat_sss_mean             =   3.4697530638148E+01
(PID.TID 0000.0001) %MON dynstat_sss_sd               =   1.1493032179115E+00
(PID.TID 0000.0001) %MON dynstat_sss_del2             =   9.9671849316283E-04
(PID.TID 0000.0001) %MON forcing_qnet_max             =   1.7935975645452E+03
(PID.TID 0000.0001) %MON forcing_qnet_min             =  -1.1601818847656E+03
(PID.TID 0000.0001) %MON forcing_qnet_mean            =  -2.9682684696084E+01
(PID.TID 0000.0001) %MON forcing_qnet_sd              =   2.0599223846548E+02
(PID.TID 0000.0001) %MON forcing_qnet_del2            =   3.5645790951814E-01
(PID.TID 0000.0001) %MON forcing_qsw_max              =   0.0000000000000E+00
(PID.TID 0000.0001) %MON forcing_qsw_min              =  -1.0436659070508E+02
(PID.TID 0000.0001) %MON forcing_qsw_mean             =  -2.3170575602494E+01
(PID.TID 0000.0001) %MON forcing_qsw_sd               =   3.1028441552734E+01
(PID.TID 0000.0001) %MON forcing_qsw_del2             =   2.0175837462564E-02
(PID.TID 0000.0001) %MON forcing_empmr_max            =   1.4473469927907E-03
(PID.TID 0000.0001) %MON forcing_empmr_min            =  -4.2420364916325E-02
(PID.TID 0000.0001) %MON forcing_empmr_mean           =  -3.9383262241388E-06
(PID.TID 0000.0001) %MON forcing_empmr_sd             =   2.2802968356333E-04
(PID.TID 0000.0001) %MON forcing_empmr_del2           =   2.4864470917884E-06
(PID.TID 0000.0001) %MON forcing_fu_max               =   6.9465464353561E-01
(PID.TID 0000.0001) %MON forcing_fu_min               =  -5.4513591527939E-01
(PID.TID 0000.0001) %MON forcing_fu_mean              =   4.7839455857404E-03
(PID.TID 0000.0001) %MON forcing_fu_sd                =   8.7145992679266E-02
(PID.TID 0000.0001) %MON forcing_fu_del2              =   1.0621544895838E-04
(PID.TID 0000.0001) %MON forcing_fv_max               =   8.5621029138565E-01
(PID.TID 0000.0001) %MON forcing_fv_min               =  -7.0592612028122E-01
(PID.TID 0000.0001) %MON forcing_fv_mean              =  -3.7699999253247E-03
(PID.TID 0000.0001) %MON forcing_fv_sd                =   1.0622791528633E-01
(PID.TID 0000.0001) %MON forcing_fv_del2              =   1.3090925050461E-04
(PID.TID 0000.0001) %MON trAdv_CFL_u_max              =   1.4298467076573E-02
(PID.TID 0000.0001) %MON trAdv_CFL_v_max              =   2.0687425839426E-02
(PID.TID 0000.0001) %MON trAdv_CFL_w_max              =   2.7293832004386E-02
(PID.TID 0000.0001) %MON advcfl_uvel_max              =   1.4919919384529E-02
(PID.TID 0000.0001) %MON advcfl_vvel_max              =   2.1288119419306E-02
(PID.TID 0000.0001) %MON advcfl_wvel_max              =   2.7628361093157E-02
(PID.TID 0000.0001) %MON advcfl_W_hf_max              =   2.7791976525904E-02
(PID.TID 0000.0001) %MON pe_b_mean                    =   5.5051900317081E-04
(PID.TID 0000.0001) %MON ke_max                       =   7.1917306606580E-01
(PID.TID 0000.0001) %MON ke_mean                      =   4.0079776985149E-04
(PID.TID 0000.0001) %MON ke_vol                       =   1.3349975263054E+18
(PID.TID 0000.0001) %MON vort_r_min                   =  -2.2548117431226E-05
(PID.TID 0000.0001) %MON vort_r_max                   =   3.3996464542854E-05
(PID.TID 0000.0001) %MON vort_a_mean                  =  -1.9727864647440E-05
(PID.TID 0000.0001) %MON vort_a_sd                    =   7.4542938043073E-05
(PID.TID 0000.0001) %MON vort_p_mean                  =  -2.1760537401819E-05
(PID.TID 0000.0001) %MON vort_p_sd                    =   9.7246921543940E-05
(PID.TID 0000.0001) %MON surfExpan_theta_mean         =   3.7335157281448E-07
(PID.TID 0000.0001) %MON surfExpan_salt_mean          =   2.3245226695880E-08
(PID.TID 0000.0001) // =======================================================
(PID.TID 0000.0001) // End MONITOR dynamic field statistics
(PID.TID 0000.0001) // =======================================================
(PID.TID 0000.0001) // =======================================================
(PID.TID 0000.0001) // Begin MONITOR SEAICE statistics
(PID.TID 0000.0001) // =======================================================
(PID.TID 0000.0001) %MON seaice_tsnumber              =                   296
(PID.TID 0000.0001) %MON seaice_time_sec              =   2.6640000000000E+05
(PID.TID 0000.0001) %MON seaice_uice_max              =   4.0000000000000E-01
(PID.TID 0000.0001) %MON seaice_uice_min              =  -4.0000000000000E-01
(PID.TID 0000.0001) %MON seaice_uice_mean             =  -8.3054598624025E-03
(PID.TID 0000.0001) %MON seaice_uice_sd               =   1.9802383574176E-01
(PID.TID 0000.0001) %MON seaice_uice_del2             =   2.2931571122150E-04
(PID.TID 0000.0001) %MON seaice_vice_max              =   4.0000000000000E-01
(PID.TID 0000.0001) %MON seaice_vice_min              =  -4.0000000000000E-01
(PID.TID 0000.0001) %MON seaice_vice_mean             =  -2.1960776359499E-02
(PID.TID 0000.0001) %MON seaice_vice_sd               =   2.1302038025672E-01
(PID.TID 0000.0001) %MON seaice_vice_del2             =   2.3932563818061E-04
(PID.TID 0000.0001) %MON seaice_area_max              =   1.0000000000000E+00
(PID.TID 0000.0001) %MON seaice_area_min              =   0.0000000000000E+00
(PID.TID 0000.0001) %MON seaice_area_mean             =   6.8165388447670E-02
(PID.TID 0000.0001) %MON seaice_area_sd               =   2.3395420648684E-01
(PID.TID 0000.0001) %MON seaice_area_del2             =   4.3144694452343E-04
(PID.TID 0000.0001) %MON seaice_heff_max              =   2.5151466558687E+01
(PID.TID 0000.0001) %MON seaice_heff_min              =   0.0000000000000E+00
(PID.TID 0000.0001) %MON seaice_heff_mean             =   2.1505838494936E-01
(PID.TID 0000.0001) %MON seaice_heff_sd               =   1.0692136043997E+00
(PID.TID 0000.0001) %MON seaice_heff_del2             =   3.8883583670724E-03
(PID.TID 0000.0001) %MON seaice_hsnow_max             =   8.3071359642490E+00
(PID.TID 0000.0001) %MON seaice_hsnow_min             =   0.0000000000000E+00
(PID.TID 0000.0001) %MON seaice_hsnow_mean            =   2.4370152801365E-02
(PID.TID 0000.0001) %MON seaice_hsnow_sd              =   1.5711789077537E-01
(PID.TID 0000.0001) %MON seaice_hsnow_del2            =   1.2488155864441E-03
(PID.TID 0000.0001) // =======================================================
(PID.TID 0000.0001) // End MONITOR SEAICE statistics
(PID.TID 0000.0001) // =======================================================
 Computing Diagnostic #     86  oceQnet      Counter:       4   Parms: SM      U1      
 Computing Diagnostic #     87  oceQsw       Counter:       4   Parms: SM      U1      
 Computing Diagnostic #     84  oceFWflx     Counter:       4   Parms: SM      U1      
 Computing Diagnostic #     85  oceSflux     Counter:       4   Parms: SM      U1      
 Computing Diagnostic #     80  oceTAUX      Counter:       4   Parms: UU      U1      
           Vector  Mate for  oceTAUX      Diagnostic #     81  oceTAUY  exists 
 Computing Diagnostic #     81  oceTAUY      Counter:       4   Parms: VV      U1      
           Vector  Mate for  oceTAUY      Diagnostic #     80  oceTAUX  exists 
 Computing Diagnostic #     26  THETA        Counter:       4   Parms: SMR     MR      
 Computing Diagnostic #     27  SALT         Counter:       4   Parms: SMR     MR      
 Computing Diagnostic #     30  UVEL         Counter:       4   Parms: UUR     MR      
           Vector  Mate for  UVEL         Diagnostic #     31  VVEL     exists 
 Computing Diagnostic #     31  VVEL         Counter:       4   Parms: VVR     MR      
           Vector  Mate for  VVEL         Diagnostic #     30  UVEL     exists 
 Computing Diagnostic #    214  SIarea       Counter:       4   Parms: SM      M1      
 Computing Diagnostic #    217  SIheff       Counter:       4   Parms: SM      M1      
 Computing Diagnostic #    219  SIhsnow      Counter:       4   Parms: SM      M1      
 Computing Diagnostic #     83  sIceLoad     Counter:       4   Parms: SM      U1      
 Computing Diagnostic #    223  SIuice       Counter:       4   Parms: UU      M1      
           Vector  Mate for  SIuice       Diagnostic #    224  SIvice   exists 
 Computing Diagnostic #    224  SIvice       Counter:       4   Parms: VV      M1      
           Vector  Mate for  SIvice       Diagnostic #    223  SIuice   exists 
 Computing Diagnostic #    225  SItaux       Counter:       4   Parms: UU      U1      
           Vector  Mate for  SItaux       Diagnostic #    226  SItauy   exists 
 Computing Diagnostic #    226  SItauy       Counter:       4   Parms: VV      U1      
           Vector  Mate for  SItauy       Diagnostic #    225  SItaux   exists 
 Computing Diagnostic #    285  SIareaN      Counter:       4   Parms: SM      MX      
 Computing Diagnostic #    284  SIheffN      Counter:       4   Parms: SM      MX      
 Computing Diagnostic #    286  SIhsnowN     Counter:       4   Parms: SM      MX      
 Compute Stats, Diag. #    214  SIarea    vol(   0 ): 3.580E+14  Parms: SM      M1      
 Compute Stats, Diag. #    217  SIheff    vol(   0 ): 3.580E+14  Parms: SM      M1      
 Compute Stats, Diag. #    219  SIhsnow   vol(   0 ): 3.580E+14  Parms: SM      M1      
 Compute Stats, Diag. #     83  sIceLoad  vol(   0 ): 3.580E+14  Parms: SM      U1      
 Compute Stats, Diag. #    223  SIuice    vol(   0 ): 3.513E+14  Parms: UU      M1      
 Compute Stats, Diag. #    224  SIvice    vol(   0 ): 3.508E+14  Parms: VV      M1      
 Compute Stats, Diag. #    225  SItaux    vol(   0 ): 3.513E+14  Parms: UU      U1      
 Compute Stats, Diag. #    226  SItauy    vol(   0 ): 3.508E+14  Parms: VV      U1      
 cg2d: Sum(rhs),rhsMax =   3.07556657362386E+01  2.91156457393592E-01
 Compute Stats, Diag. #    214  SIarea    vol(   0 ): 3.580E+14  Parms: SM      M1      
 Compute Stats, Diag. #    217  SIheff    vol(   0 ): 3.580E+14  Parms: SM      M1      
 Compute Stats, Diag. #    219  SIhsnow   vol(   0 ): 3.580E+14  Parms: SM      M1      
 Compute Stats, Diag. #     83  sIceLoad  vol(   0 ): 3.580E+14  Parms: SM      U1      
 Compute Stats, Diag. #    223  SIuice    vol(   0 ): 3.513E+14  Parms: UU      M1      
 Compute Stats, Diag. #    224  SIvice    vol(   0 ): 3.508E+14  Parms: VV      M1      
 Compute Stats, Diag. #    225  SItaux    vol(   0 ): 3.513E+14  Parms: UU      U1      
 Compute Stats, Diag. #    226  SItauy    vol(   0 ): 3.508E+14  Parms: VV      U1      
 cg2d: Sum(rhs),rhsMax =   3.06638832776382E+01  2.91096368679123E-01
 Compute Stats, Diag. #    214  SIarea    vol(   0 ): 3.580E+14  Parms: SM      M1      
 Compute Stats, Diag. #    217  SIheff    vol(   0 ): 3.580E+14  Parms: SM      M1      
 Compute Stats, Diag. #    219  SIhsnow   vol(   0 ): 3.580E+14  Parms: SM      M1      
 Compute Stats, Diag. #     83  sIceLoad  vol(   0 ): 3.580E+14  Parms: SM      U1      
 Compute Stats, Diag. #    223  SIuice    vol(   0 ): 3.513E+14  Parms: UU      M1      
 Compute Stats, Diag. #    224  SIvice    vol(   0 ): 3.508E+14  Parms: VV      M1      
 Compute Stats, Diag. #    225  SItaux    vol(   0 ): 3.513E+14  Parms: UU      U1      
 Compute Stats, Diag. #    226  SItauy    vol(   0 ): 3.508E+14  Parms: VV      U1      
 cg2d: Sum(rhs),rhsMax =   3.05784543621217E+01  2.91043318019134E-01
 Compute Stats, Diag. #    214  SIarea    vol(   0 ): 3.580E+14  Parms: SM      M1      
 Compute Stats, Diag. #    217  SIheff    vol(   0 ): 3.580E+14  Parms: SM      M1      
 Compute Stats, Diag. #    219  SIhsnow   vol(   0 ): 3.580E+14  Parms: SM      M1      
 Compute Stats, Diag. #     83  sIceLoad  vol(   0 ): 3.580E+14  Parms: SM      U1      
 Compute Stats, Diag. #    223  SIuice    vol(   0 ): 3.513E+14  Parms: UU      M1      
 Compute Stats, Diag. #    224  SIvice    vol(   0 ): 3.508E+14  Parms: VV      M1      
 Compute Stats, Diag. #    225  SItaux    vol(   0 ): 3.513E+14  Parms: UU      U1      
 Compute Stats, Diag. #    226  SItauy    vol(   0 ): 3.508E+14  Parms: VV      U1      
 cg2d: Sum(rhs),rhsMax =   3.04903370943921E+01  2.90997316875869E-01
 Computing Diagnostic #     86  oceQnet      Counter:       4   Parms: SM      U1      
 Computing Diagnostic #     87  oceQsw       Counter:       4   Parms: SM      U1      
 Computing Diagnostic #     84  oceFWflx     Counter:       4   Parms: SM      U1      
 Computing Diagnostic #     85  oceSflux     Counter:       4   Parms: SM      U1      
 Computing Diagnostic #     80  oceTAUX      Counter:       4   Parms: UU      U1      
           Vector  Mate for  oceTAUX      Diagnostic #     81  oceTAUY  exists 
 Computing Diagnostic #     81  oceTAUY      Counter:       4   Parms: VV      U1      
           Vector  Mate for  oceTAUY      Diagnostic #     80  oceTAUX  exists 
 Computing Diagnostic #     26  THETA        Counter:       4   Parms: SMR     MR      
 Computing Diagnostic #     27  SALT         Counter:       4   Parms: SMR     MR      
 Computing Diagnostic #     30  UVEL         Counter:       4   Parms: UUR     MR      
           Vector  Mate for  UVEL         Diagnostic #     31  VVEL     exists 
 Computing Diagnostic #     31  VVEL         Counter:       4   Parms: VVR     MR      
           Vector  Mate for  VVEL         Diagnostic #     30  UVEL     exists 
 Computing Diagnostic #    214  SIarea       Counter:       4   Parms: SM      M1      
 Computing Diagnostic #    217  SIheff       Counter:       4   Parms: SM      M1      
 Computing Diagnostic #    219  SIhsnow      Counter:       4   Parms: SM      M1      
 Computing Diagnostic #     83  sIceLoad     Counter:       4   Parms: SM      U1      
 Computing Diagnostic #    223  SIuice       Counter:       4   Parms: UU      M1      
           Vector  Mate for  SIuice       Diagnostic #    224  SIvice   exists 
 Computing Diagnostic #    224  SIvice       Counter:       4   Parms: VV      M1      
           Vector  Mate for  SIvice       Diagnostic #    223  SIuice   exists 
 Computing Diagnostic #    225  SItaux       Counter:       4   Parms: UU      U1      
           Vector  Mate for  SItaux       Diagnostic #    226  SItauy   exists 
 Computing Diagnostic #    226  SItauy       Counter:       4   Parms: VV      U1      
           Vector  Mate for  SItauy       Diagnostic #    225  SItaux   exists 
 Computing Diagnostic #    285  SIareaN      Counter:       4   Parms: SM      MX      
 Computing Diagnostic #    284  SIheffN      Counter:       4   Parms: SM      MX      
 Computing Diagnostic #    286  SIhsnowN     Counter:       4   Parms: SM      MX      
 Compute Stats, Diag. #    214  SIarea    vol(   0 ): 3.580E+14  Parms: SM      M1      
 Compute Stats, Diag. #    217  SIheff    vol(   0 ): 3.580E+14  Parms: SM      M1      
 Compute Stats, Diag. #    219  SIhsnow   vol(   0 ): 3.580E+14  Parms: SM      M1      
 Compute Stats, Diag. #     83  sIceLoad  vol(   0 ): 3.580E+14  Parms: SM      U1      
 Compute Stats, Diag. #    223  SIuice    vol(   0 ): 3.513E+14  Parms: UU      M1      
 Compute Stats, Diag. #    224  SIvice    vol(   0 ): 3.508E+14  Parms: VV      M1      
 Compute Stats, Diag. #    225  SItaux    vol(   0 ): 3.513E+14  Parms: UU      U1      
 Compute Stats, Diag. #    226  SItauy    vol(   0 ): 3.508E+14  Parms: VV      U1      
 cg2d: Sum(rhs),rhsMax =   3.04064521146440E+01  2.90959161939759E-01
 Compute Stats, Diag. #    214  SIarea    vol(   0 ): 3.580E+14  Parms: SM      M1      
 Compute Stats, Diag. #    217  SIheff    vol(   0 ): 3.580E+14  Parms: SM      M1      
 Compute Stats, Diag. #    219  SIhsnow   vol(   0 ): 3.580E+14  Parms: SM      M1      
 Compute Stats, Diag. #     83  sIceLoad  vol(   0 ): 3.580E+14  Parms: SM      U1      
 Compute Stats, Diag. #    223  SIuice    vol(   0 ): 3.513E+14  Parms: UU      M1      
 Compute Stats, Diag. #    224  SIvice    vol(   0 ): 3.508E+14  Parms: VV      M1      
 Compute Stats, Diag. #    225  SItaux    vol(   0 ): 3.513E+14  Parms: UU      U1      
 Compute Stats, Diag. #    226  SItauy    vol(   0 ): 3.508E+14  Parms: VV      U1      
 cg2d: Sum(rhs),rhsMax =   3.03246782605966E+01  2.90928744687287E-01
 Compute Stats, Diag. #    214  SIarea    vol(   0 ): 3.580E+14  Parms: SM      M1      
 Compute Stats, Diag. #    217  SIheff    vol(   0 ): 3.580E+14  Parms: SM      M1      
 Compute Stats, Diag. #    219  SIhsnow   vol(   0 ): 3.580E+14  Parms: SM      M1      
 Compute Stats, Diag. #     83  sIceLoad  vol(   0 ): 3.580E+14  Parms: SM      U1      
 Compute Stats, Diag. #    223  SIuice    vol(   0 ): 3.513E+14  Parms: UU      M1      
 Compute Stats, Diag. #    224  SIvice    vol(   0 ): 3.508E+14  Parms: VV      M1      
 Compute Stats, Diag. #    225  SItaux    vol(   0 ): 3.513E+14  Parms: UU      U1      
 Compute Stats, Diag. #    226  SItauy    vol(   0 ): 3.508E+14  Parms: VV      U1      
 cg2d: Sum(rhs),rhsMax =   3.02499156071079E+01  2.90906371008630E-01
 Compute Stats, Diag. #    214  SIarea    vol(   0 ): 3.580E+14  Parms: SM      M1      
 Compute Stats, Diag. #    217  SIheff    vol(   0 ): 3.580E+14  Parms: SM      M1      
 Compute Stats, Diag. #    219  SIhsnow   vol(   0 ): 3.580E+14  Parms: SM      M1      
 Compute Stats, Diag. #     83  sIceLoad  vol(   0 ): 3.580E+14  Parms: SM      U1      
 Compute Stats, Diag. #    223  SIuice    vol(   0 ): 3.513E+14  Parms: UU      M1      
 Compute Stats, Diag. #    224  SIvice    vol(   0 ): 3.508E+14  Parms: VV      M1      
 Compute Stats, Diag. #    225  SItaux    vol(   0 ): 3.513E+14  Parms: UU      U1      
 Compute Stats, Diag. #    226  SItauy    vol(   0 ): 3.508E+14  Parms: VV      U1      
 cg2d: Sum(rhs),rhsMax =   3.01748834187218E+01  2.90891957624200E-01
(PID.TID 0000.0001)      cg2d_init_res =   1.02715398340631E-01
(PID.TID 0000.0001)      cg2d_iters(min,last) =      -1      25
(PID.TID 0000.0001)      cg2d_last_res =   2.48907884995142E-05
(PID.TID 0000.0001) // =======================================================
(PID.TID 0000.0001) // Begin MONITOR dynamic field statistics
(PID.TID 0000.0001) // =======================================================
(PID.TID 0000.0001) %MON time_tsnumber                =                   304
(PID.TID 0000.0001) %MON time_secondsf                =   2.7360000000000E+05
(PID.TID 0000.0001) %MON dynstat_eta_max              =   1.0528065859387E+00
(PID.TID 0000.0001) %MON dynstat_eta_min              =  -1.8957006804346E+00
(PID.TID 0000.0001) %MON dynstat_eta_mean             =  -9.5452793471740E-04
(PID.TID 0000.0001) %MON dynstat_eta_sd               =   6.4623910051627E-01
(PID.TID 0000.0001) %MON dynstat_eta_del2             =   6.2880855732817E-05
(PID.TID 0000.0001) %MON dynstat_uvel_max             =   9.4364582294993E-01
(PID.TID 0000.0001) %MON dynstat_uvel_min             =  -8.0480020900890E-01
(PID.TID 0000.0001) %MON dynstat_uvel_mean            =   1.2579414635919E-03
(PID.TID 0000.0001) %MON dynstat_uvel_sd              =   1.9713357492092E-02
(PID.TID 0000.0001) %MON dynstat_uvel_del2            =   8.2690756390664E-06
(PID.TID 0000.0001) %MON dynstat_vvel_max             =   1.1980132353572E+00
(PID.TID 0000.0001) %MON dynstat_vvel_min             =  -8.6040073421171E-01
(PID.TID 0000.0001) %MON dynstat_vvel_mean            =   1.0837436543925E-03
(PID.TID 0000.0001) %MON dynstat_vvel_sd              =   2.0960878650283E-02
(PID.TID 0000.0001) %MON dynstat_vvel_del2            =   8.6240025345528E-06
(PID.TID 0000.0001) %MON dynstat_wvel_max             =   4.3139556160894E-04
(PID.TID 0000.0001) %MON dynstat_wvel_min             =  -7.8865808419817E-04
(PID.TID 0000.0001) %MON dynstat_wvel_mean            =   3.0954668585414E-08
(PID.TID 0000.0001) %MON dynstat_wvel_sd              =   2.0828479711613E-05
(PID.TID 0000.0001) %MON dynstat_wvel_del2            =   1.7757047916592E-08
(PID.TID 0000.0001) %MON dynstat_theta_max            =   3.2337528022232E+01
(PID.TID 0000.0001) %MON dynstat_theta_min            =  -2.0493742275535E+00
(PID.TID 0000.0001) %MON dynstat_theta_mean           =   3.5904418661590E+00
(PID.TID 0000.0001) %MON dynstat_theta_sd             =   4.4362744120211E+00
(PID.TID 0000.0001) %MON dynstat_theta_del2           =   9.7336036204708E-05
(PID.TID 0000.0001) %MON dynstat_salt_max             =   4.0711545502568E+01
(PID.TID 0000.0001) %MON dynstat_salt_min             =   1.1904816308563E+01
(PID.TID 0000.0001) %MON dynstat_salt_mean            =   3.4725580436306E+01
(PID.TID 0000.0001) %MON dynstat_salt_sd              =   3.7701405826782E-01
(PID.TID 0000.0001) %MON dynstat_salt_del2            =   3.3307637378425E-05
(PID.TID 0000.0001) %MON dynstat_sst_max              =   3.2337528022232E+01
(PID.TID 0000.0001) %MON dynstat_sst_min              =  -1.8092182750844E+00
(PID.TID 0000.0001) %MON dynstat_sst_mean             =   1.8489739928405E+01
(PID.TID 0000.0001) %MON dynstat_sst_sd               =   1.0170306718599E+01
(PID.TID 0000.0001) %MON dynstat_sst_del2             =   8.1804195133155E-04
(PID.TID 0000.0001) %MON dynstat_sss_max              =   3.9134442799822E+01
(PID.TID 0000.0001) %MON dynstat_sss_min              =   1.1904816308563E+01
(PID.TID 0000.0001) %MON dynstat_sss_mean             =   3.4697754294869E+01
(PID.TID 0000.0001) %MON dynstat_sss_sd               =   1.1497067196727E+00
(PID.TID 0000.0001) %MON dynstat_sss_del2             =   9.8502893169627E-04
(PID.TID 0000.0001) %MON forcing_qnet_max             =   7.5839636230469E+02
(PID.TID 0000.0001) %MON forcing_qnet_min             =  -1.0631608886719E+03
(PID.TID 0000.0001) %MON forcing_qnet_mean            =  -1.8093580797628E+01
(PID.TID 0000.0001) %MON forcing_qnet_sd              =   1.9825387507198E+02
(PID.TID 0000.0001) %MON forcing_qnet_del2            =   3.4309928527088E-01
(PID.TID 0000.0001) %MON forcing_qsw_max              =   0.0000000000000E+00
(PID.TID 0000.0001) %MON forcing_qsw_min              =  -1.1066403192644E+02
(PID.TID 0000.0001) %MON forcing_qsw_mean             =  -2.1518896127655E+01
(PID.TID 0000.0001) %MON forcing_qsw_sd               =   3.0236956845653E+01
(PID.TID 0000.0001) %MON forcing_qsw_del2             =   2.1689271931417E-02
(PID.TID 0000.0001) %MON forcing_empmr_max            =   1.2767198495567E-03
(PID.TID 0000.0001) %MON forcing_empmr_min            =  -3.4724492579699E-02
(PID.TID 0000.0001) %MON forcing_empmr_mean           =  -2.7137105337289E-06
(PID.TID 0000.0001) %MON forcing_empmr_sd             =   1.8884338210313E-04
(PID.TID 0000.0001) %MON forcing_empmr_del2           =   2.0264903264012E-06
(PID.TID 0000.0001) %MON forcing_fu_max               =   6.9882240891456E-01
(PID.TID 0000.0001) %MON forcing_fu_min               =  -5.1134064793587E-01
(PID.TID 0000.0001) %MON forcing_fu_mean              =   4.6112303679070E-03
(PID.TID 0000.0001) %MON forcing_fu_sd                =   8.7402932448726E-02
(PID.TID 0000.0001) %MON forcing_fu_del2              =   1.0765666926206E-04
(PID.TID 0000.0001) %MON forcing_fv_max               =   8.5497733950615E-01
(PID.TID 0000.0001) %MON forcing_fv_min               =  -6.9158795475960E-01
(PID.TID 0000.0001) %MON forcing_fv_mean              =  -3.1089998215095E-03
(PID.TID 0000.0001) %MON forcing_fv_sd                =   1.0524157983904E-01
(PID.TID 0000.0001) %MON forcing_fv_del2              =   1.2819205217095E-04
(PID.TID 0000.0001) %MON trAdv_CFL_u_max              =   1.3215587988010E-02
(PID.TID 0000.0001) %MON trAdv_CFL_v_max              =   2.0647575155546E-02
(PID.TID 0000.0001) %MON trAdv_CFL_w_max              =   2.5523924041028E-02
(PID.TID 0000.0001) %MON advcfl_uvel_max              =   1.3699344960052E-02
(PID.TID 0000.0001) %MON advcfl_vvel_max              =   2.1265818134935E-02
(PID.TID 0000.0001) %MON advcfl_wvel_max              =   2.5873734835451E-02
(PID.TID 0000.0001) %MON advcfl_W_hf_max              =   2.6021973128391E-02
(PID.TID 0000.0001) %MON pe_b_mean                    =   5.4934578896592E-04
(PID.TID 0000.0001) %MON ke_max                       =   7.1718103273651E-01
(PID.TID 0000.0001) %MON ke_mean                      =   4.0057522016369E-04
(PID.TID 0000.0001) %MON ke_vol                       =   1.3349975343553E+18
(PID.TID 0000.0001) %MON vort_r_min                   =  -2.2431646708933E-05
(PID.TID 0000.0001) %MON vort_r_max                   =   3.3893631726572E-05
(PID.TID 0000.0001) %MON vort_a_mean                  =  -1.9727864647440E-05
(PID.TID 0000.0001) %MON vort_a_sd                    =   7.4542933079301E-05
(PID.TID 0000.0001) %MON vort_p_mean                  =  -2.1760537488876E-05
(PID.TID 0000.0001) %MON vort_p_sd                    =   9.7246933822366E-05
(PID.TID 0000.0001) %MON surfExpan_theta_mean         =   3.4902783317186E-07
(PID.TID 0000.0001) %MON surfExpan_salt_mean          =   8.6318101456502E-09
(PID.TID 0000.0001) // =======================================================
(PID.TID 0000.0001) // End MONITOR dynamic field statistics
(PID.TID 0000.0001) // =======================================================
(PID.TID 0000.0001) // =======================================================
(PID.TID 0000.0001) // Begin MONITOR SEAICE statistics
(PID.TID 0000.0001) // =======================================================
(PID.TID 0000.0001) %MON seaice_tsnumber              =                   304
(PID.TID 0000.0001) %MON seaice_time_sec              =   2.7360000000000E+05
(PID.TID 0000.0001) %MON seaice_uice_max              =   4.0000000000000E-01
(PID.TID 0000.0001) %MON seaice_uice_min              =  -4.0000000000000E-01
(PID.TID 0000.0001) %MON seaice_uice_mean             =  -8.3054598624025E-03
(PID.TID 0000.0001) %MON seaice_uice_sd               =   1.9802383574176E-01
(PID.TID 0000.0001) %MON seaice_uice_del2             =   2.2931571122150E-04
(PID.TID 0000.0001) %MON seaice_vice_max              =   4.0000000000000E-01
(PID.TID 0000.0001) %MON seaice_vice_min              =  -4.0000000000000E-01
(PID.TID 0000.0001) %MON seaice_vice_mean             =  -2.1960776359499E-02
(PID.TID 0000.0001) %MON seaice_vice_sd               =   2.1302038025672E-01
(PID.TID 0000.0001) %MON seaice_vice_del2             =   2.3932563818061E-04
(PID.TID 0000.0001) %MON seaice_area_max              =   1.0000000000000E+00
(PID.TID 0000.0001) %MON seaice_area_min              =   0.0000000000000E+00
(PID.TID 0000.0001) %MON seaice_area_mean             =   6.8113167199108E-02
(PID.TID 0000.0001) %MON seaice_area_sd               =   2.3386568907561E-01
(PID.TID 0000.0001) %MON seaice_area_del2             =   4.3032121843949E-04
(PID.TID 0000.0001) %MON seaice_heff_max              =   2.5148277483182E+01
(PID.TID 0000.0001) %MON seaice_heff_min              =   0.0000000000000E+00
(PID.TID 0000.0001) %MON seaice_heff_mean             =   2.1500316436782E-01
(PID.TID 0000.0001) %MON seaice_heff_sd               =   1.0691433781753E+00
(PID.TID 0000.0001) %MON seaice_heff_del2             =   3.8873462069837E-03
(PID.TID 0000.0001) %MON seaice_hsnow_max             =   8.3060893464717E+00
(PID.TID 0000.0001) %MON seaice_hsnow_min             =   0.0000000000000E+00
(PID.TID 0000.0001) %MON seaice_hsnow_mean            =   2.4357817165133E-02
(PID.TID 0000.0001) %MON seaice_hsnow_sd              =   1.5709493263089E-01
(PID.TID 0000.0001) %MON seaice_hsnow_del2            =   1.2485405890482E-03
(PID.TID 0000.0001) // =======================================================
(PID.TID 0000.0001) // End MONITOR SEAICE statistics
(PID.TID 0000.0001) // =======================================================
 Computing Diagnostic #     86  oceQnet      Counter:       4   Parms: SM      U1      
 Computing Diagnostic #     87  oceQsw       Counter:       4   Parms: SM      U1      
 Computing Diagnostic #     84  oceFWflx     Counter:       4   Parms: SM      U1      
 Computing Diagnostic #     85  oceSflux     Counter:       4   Parms: SM      U1      
 Computing Diagnostic #     80  oceTAUX      Counter:       4   Parms: UU      U1      
           Vector  Mate for  oceTAUX      Diagnostic #     81  oceTAUY  exists 
 Computing Diagnostic #     81  oceTAUY      Counter:       4   Parms: VV      U1      
           Vector  Mate for  oceTAUY      Diagnostic #     80  oceTAUX  exists 
 Computing Diagnostic #     26  THETA        Counter:       4   Parms: SMR     MR      
 Computing Diagnostic #     27  SALT         Counter:       4   Parms: SMR     MR      
 Computing Diagnostic #     30  UVEL         Counter:       4   Parms: UUR     MR      
           Vector  Mate for  UVEL         Diagnostic #     31  VVEL     exists 
 Computing Diagnostic #     31  VVEL         Counter:       4   Parms: VVR     MR      
           Vector  Mate for  VVEL         Diagnostic #     30  UVEL     exists 
 Computing Diagnostic #    214  SIarea       Counter:       4   Parms: SM      M1      
 Computing Diagnostic #    217  SIheff       Counter:       4   Parms: SM      M1      
 Computing Diagnostic #    219  SIhsnow      Counter:       4   Parms: SM      M1      
 Computing Diagnostic #     83  sIceLoad     Counter:       4   Parms: SM      U1      
 Computing Diagnostic #    223  SIuice       Counter:       4   Parms: UU      M1      
           Vector  Mate for  SIuice       Diagnostic #    224  SIvice   exists 
 Computing Diagnostic #    224  SIvice       Counter:       4   Parms: VV      M1      
           Vector  Mate for  SIvice       Diagnostic #    223  SIuice   exists 
 Computing Diagnostic #    225  SItaux       Counter:       4   Parms: UU      U1      
           Vector  Mate for  SItaux       Diagnostic #    226  SItauy   exists 
 Computing Diagnostic #    226  SItauy       Counter:       4   Parms: VV      U1      
           Vector  Mate for  SItauy       Diagnostic #    225  SItaux   exists 
 Computing Diagnostic #    285  SIareaN      Counter:       4   Parms: SM      MX      
 Computing Diagnostic #    284  SIheffN      Counter:       4   Parms: SM      MX      
 Computing Diagnostic #    286  SIhsnowN     Counter:       4   Parms: SM      MX      
 Compute Stats, Diag. #    214  SIarea    vol(   0 ): 3.580E+14  Parms: SM      M1      
 Compute Stats, Diag. #    217  SIheff    vol(   0 ): 3.580E+14  Parms: SM      M1      
 Compute Stats, Diag. #    219  SIhsnow   vol(   0 ): 3.580E+14  Parms: SM      M1      
 Compute Stats, Diag. #     83  sIceLoad  vol(   0 ): 3.580E+14  Parms: SM      U1      
 Compute Stats, Diag. #    223  SIuice    vol(   0 ): 3.513E+14  Parms: UU      M1      
 Compute Stats, Diag. #    224  SIvice    vol(   0 ): 3.508E+14  Parms: VV      M1      
 Compute Stats, Diag. #    225  SItaux    vol(   0 ): 3.513E+14  Parms: UU      U1      
 Compute Stats, Diag. #    226  SItauy    vol(   0 ): 3.508E+14  Parms: VV      U1      
 cg2d: Sum(rhs),rhsMax =   3.01021880948693E+01  2.90885374905188E-01
 Compute Stats, Diag. #    214  SIarea    vol(   0 ): 3.580E+14  Parms: SM      M1      
 Compute Stats, Diag. #    217  SIheff    vol(   0 ): 3.580E+14  Parms: SM      M1      
 Compute Stats, Diag. #    219  SIhsnow   vol(   0 ): 3.580E+14  Parms: SM      M1      
 Compute Stats, Diag. #     83  sIceLoad  vol(   0 ): 3.580E+14  Parms: SM      U1      
 Compute Stats, Diag. #    223  SIuice    vol(   0 ): 3.513E+14  Parms: UU      M1      
 Compute Stats, Diag. #    224  SIvice    vol(   0 ): 3.508E+14  Parms: VV      M1      
 Compute Stats, Diag. #    225  SItaux    vol(   0 ): 3.513E+14  Parms: UU      U1      
 Compute Stats, Diag. #    226  SItauy    vol(   0 ): 3.508E+14  Parms: VV      U1      
 cg2d: Sum(rhs),rhsMax =   3.00309459113320E+01  2.90886481175617E-01
 Compute Stats, Diag. #    214  SIarea    vol(   0 ): 3.580E+14  Parms: SM      M1      
 Compute Stats, Diag. #    217  SIheff    vol(   0 ): 3.580E+14  Parms: SM      M1      
 Compute Stats, Diag. #    219  SIhsnow   vol(   0 ): 3.580E+14  Parms: SM      M1      
 Compute Stats, Diag. #     83  sIceLoad  vol(   0 ): 3.580E+14  Parms: SM      U1      
 Compute Stats, Diag. #    223  SIuice    vol(   0 ): 3.513E+14  Parms: UU      M1      
 Compute Stats, Diag. #    224  SIvice    vol(   0 ): 3.508E+14  Parms: VV      M1      
 Compute Stats, Diag. #    225  SItaux    vol(   0 ): 3.513E+14  Parms: UU      U1      
 Compute Stats, Diag. #    226  SItauy    vol(   0 ): 3.508E+14  Parms: VV      U1      
 cg2d: Sum(rhs),rhsMax =   2.99614501067977E+01  2.90894501801340E-01
 Compute Stats, Diag. #    214  SIarea    vol(   0 ): 3.580E+14  Parms: SM      M1      
 Compute Stats, Diag. #    217  SIheff    vol(   0 ): 3.580E+14  Parms: SM      M1      
 Compute Stats, Diag. #    219  SIhsnow   vol(   0 ): 3.580E+14  Parms: SM      M1      
 Compute Stats, Diag. #     83  sIceLoad  vol(   0 ): 3.580E+14  Parms: SM      U1      
 Compute Stats, Diag. #    223  SIuice    vol(   0 ): 3.513E+14  Parms: UU      M1      
 Compute Stats, Diag. #    224  SIvice    vol(   0 ): 3.508E+14  Parms: VV      M1      
 Compute Stats, Diag. #    225  SItaux    vol(   0 ): 3.513E+14  Parms: UU      U1      
 Compute Stats, Diag. #    226  SItauy    vol(   0 ): 3.508E+14  Parms: VV      U1      
 cg2d: Sum(rhs),rhsMax =   2.98978788264910E+01  2.90909973099057E-01
 Computing Diagnostic #     86  oceQnet      Counter:       4   Parms: SM      U1      
 Computing Diagnostic #     87  oceQsw       Counter:       4   Parms: SM      U1      
 Computing Diagnostic #     84  oceFWflx     Counter:       4   Parms: SM      U1      
 Computing Diagnostic #     85  oceSflux     Counter:       4   Parms: SM      U1      
 Computing Diagnostic #     80  oceTAUX      Counter:       4   Parms: UU      U1      
           Vector  Mate for  oceTAUX      Diagnostic #     81  oceTAUY  exists 
 Computing Diagnostic #     81  oceTAUY      Counter:       4   Parms: VV      U1      
           Vector  Mate for  oceTAUY      Diagnostic #     80  oceTAUX  exists 
 Computing Diagnostic #     26  THETA        Counter:       4   Parms: SMR     MR      
 Computing Diagnostic #     27  SALT         Counter:       4   Parms: SMR     MR      
 Computing Diagnostic #     30  UVEL         Counter:       4   Parms: UUR     MR      
           Vector  Mate for  UVEL         Diagnostic #     31  VVEL     exists 
 Computing Diagnostic #     31  VVEL         Counter:       4   Parms: VVR     MR      
           Vector  Mate for  VVEL         Diagnostic #     30  UVEL     exists 
 Computing Diagnostic #    214  SIarea       Counter:       4   Parms: SM      M1      
 Computing Diagnostic #    217  SIheff       Counter:       4   Parms: SM      M1      
 Computing Diagnostic #    219  SIhsnow      Counter:       4   Parms: SM      M1      
 Computing Diagnostic #     83  sIceLoad     Counter:       4   Parms: SM      U1      
 Computing Diagnostic #    223  SIuice       Counter:       4   Parms: UU      M1      
           Vector  Mate for  SIuice       Diagnostic #    224  SIvice   exists 
 Computing Diagnostic #    224  SIvice       Counter:       4   Parms: VV      M1      
           Vector  Mate for  SIvice       Diagnostic #    223  SIuice   exists 
 Computing Diagnostic #    225  SItaux       Counter:       4   Parms: UU      U1      
           Vector  Mate for  SItaux       Diagnostic #    226  SItauy   exists 
 Computing Diagnostic #    226  SItauy       Counter:       4   Parms: VV      U1      
           Vector  Mate for  SItauy       Diagnostic #    225  SItaux   exists 
 Computing Diagnostic #    285  SIareaN      Counter:       4   Parms: SM      MX      
 Computing Diagnostic #    284  SIheffN      Counter:       4   Parms: SM      MX      
 Computing Diagnostic #    286  SIhsnowN     Counter:       4   Parms: SM      MX      
 Compute Stats, Diag. #    214  SIarea    vol(   0 ): 3.580E+14  Parms: SM      M1      
 Compute Stats, Diag. #    217  SIheff    vol(   0 ): 3.580E+14  Parms: SM      M1      
 Compute Stats, Diag. #    219  SIhsnow   vol(   0 ): 3.580E+14  Parms: SM      M1      
 Compute Stats, Diag. #     83  sIceLoad  vol(   0 ): 3.580E+14  Parms: SM      U1      
 Compute Stats, Diag. #    223  SIuice    vol(   0 ): 3.513E+14  Parms: UU      M1      
 Compute Stats, Diag. #    224  SIvice    vol(   0 ): 3.508E+14  Parms: VV      M1      
 Compute Stats, Diag. #    225  SItaux    vol(   0 ): 3.513E+14  Parms: UU      U1      
 Compute Stats, Diag. #    226  SItauy    vol(   0 ): 3.508E+14  Parms: VV      U1      
 cg2d: Sum(rhs),rhsMax =   2.98379824024763E+01  2.90931585201376E-01
 Compute Stats, Diag. #    214  SIarea    vol(   0 ): 3.580E+14  Parms: SM      M1      
 Compute Stats, Diag. #    217  SIheff    vol(   0 ): 3.580E+14  Parms: SM      M1      
 Compute Stats, Diag. #    219  SIhsnow   vol(   0 ): 3.580E+14  Parms: SM      M1      
 Compute Stats, Diag. #     83  sIceLoad  vol(   0 ): 3.580E+14  Parms: SM      U1      
 Compute Stats, Diag. #    223  SIuice    vol(   0 ): 3.513E+14  Parms: UU      M1      
 Compute Stats, Diag. #    224  SIvice    vol(   0 ): 3.508E+14  Parms: VV      M1      
 Compute Stats, Diag. #    225  SItaux    vol(   0 ): 3.513E+14  Parms: UU      U1      
 Compute Stats, Diag. #    226  SItauy    vol(   0 ): 3.508E+14  Parms: VV      U1      
 cg2d: Sum(rhs),rhsMax =   2.97807209109822E+01  2.90958999069677E-01
 Compute Stats, Diag. #    214  SIarea    vol(   0 ): 3.580E+14  Parms: SM      M1      
 Compute Stats, Diag. #    217  SIheff    vol(   0 ): 3.580E+14  Parms: SM      M1      
 Compute Stats, Diag. #    219  SIhsnow   vol(   0 ): 3.580E+14  Parms: SM      M1      
 Compute Stats, Diag. #     83  sIceLoad  vol(   0 ): 3.580E+14  Parms: SM      U1      
 Compute Stats, Diag. #    223  SIuice    vol(   0 ): 3.513E+14  Parms: UU      M1      
 Compute Stats, Diag. #    224  SIvice    vol(   0 ): 3.508E+14  Parms: VV      M1      
 Compute Stats, Diag. #    225  SItaux    vol(   0 ): 3.513E+14  Parms: UU      U1      
 Compute Stats, Diag. #    226  SItauy    vol(   0 ): 3.508E+14  Parms: VV      U1      
 cg2d: Sum(rhs),rhsMax =   2.97234101144096E+01  2.90991016513906E-01
 Compute Stats, Diag. #    214  SIarea    vol(   0 ): 3.580E+14  Parms: SM      M1      
 Compute Stats, Diag. #    217  SIheff    vol(   0 ): 3.580E+14  Parms: SM      M1      
 Compute Stats, Diag. #    219  SIhsnow   vol(   0 ): 3.580E+14  Parms: SM      M1      
 Compute Stats, Diag. #     83  sIceLoad  vol(   0 ): 3.580E+14  Parms: SM      U1      
 Compute Stats, Diag. #    223  SIuice    vol(   0 ): 3.513E+14  Parms: UU      M1      
 Compute Stats, Diag. #    224  SIvice    vol(   0 ): 3.508E+14  Parms: VV      M1      
 Compute Stats, Diag. #    225  SItaux    vol(   0 ): 3.513E+14  Parms: UU      U1      
 Compute Stats, Diag. #    226  SItauy    vol(   0 ): 3.508E+14  Parms: VV      U1      
 cg2d: Sum(rhs),rhsMax =   2.96624863979777E+01  2.91026720444856E-01
(PID.TID 0000.0001)      cg2d_init_res =   9.16611048489814E-02
(PID.TID 0000.0001)      cg2d_iters(min,last) =      -1      25
(PID.TID 0000.0001)      cg2d_last_res =   2.58739724104614E-05
(PID.TID 0000.0001) // =======================================================
(PID.TID 0000.0001) // Begin MONITOR dynamic field statistics
(PID.TID 0000.0001) // =======================================================
(PID.TID 0000.0001) %MON time_tsnumber                =                   312
(PID.TID 0000.0001) %MON time_secondsf                =   2.8080000000000E+05
(PID.TID 0000.0001) %MON dynstat_eta_max              =   1.0499715778785E+00
(PID.TID 0000.0001) %MON dynstat_eta_min              =  -1.8988100642066E+00
(PID.TID 0000.0001) %MON dynstat_eta_mean             =  -9.3831918046364E-04
(PID.TID 0000.0001) %MON dynstat_eta_sd               =   6.4537533774195E-01
(PID.TID 0000.0001) %MON dynstat_eta_del2             =   6.2388938643814E-05
(PID.TID 0000.0001) %MON dynstat_uvel_max             =   9.4114200631880E-01
(PID.TID 0000.0001) %MON dynstat_uvel_min             =  -7.7730402400929E-01
(PID.TID 0000.0001) %MON dynstat_uvel_mean            =   1.1794970377693E-03
(PID.TID 0000.0001) %MON dynstat_uvel_sd              =   1.9650367761453E-02
(PID.TID 0000.0001) %MON dynstat_uvel_del2            =   8.1903177057449E-06
(PID.TID 0000.0001) %MON dynstat_vvel_max             =   1.1942728545173E+00
(PID.TID 0000.0001) %MON dynstat_vvel_min             =  -8.6007887425645E-01
(PID.TID 0000.0001) %MON dynstat_vvel_mean            =   1.0732130430467E-03
(PID.TID 0000.0001) %MON dynstat_vvel_sd              =   2.1001986502856E-02
(PID.TID 0000.0001) %MON dynstat_vvel_del2            =   8.5616298220889E-06
(PID.TID 0000.0001) %MON dynstat_wvel_max             =   4.2011996203912E-04
(PID.TID 0000.0001) %MON dynstat_wvel_min             =  -7.9487927211678E-04
(PID.TID 0000.0001) %MON dynstat_wvel_mean            =   2.8694299646943E-08
(PID.TID 0000.0001) %MON dynstat_wvel_sd              =   2.0742347569377E-05
(PID.TID 0000.0001) %MON dynstat_wvel_del2            =   1.7472113438807E-08
(PID.TID 0000.0001) %MON dynstat_theta_max            =   3.2348836904866E+01
(PID.TID 0000.0001) %MON dynstat_theta_min            =  -2.0530125659153E+00
(PID.TID 0000.0001) %MON dynstat_theta_mean           =   3.5904454194801E+00
(PID.TID 0000.0001) %MON dynstat_theta_sd             =   4.4363120429459E+00
(PID.TID 0000.0001) %MON dynstat_theta_del2           =   9.7223368804039E-05
(PID.TID 0000.0001) %MON dynstat_salt_max             =   4.0711546341133E+01
(PID.TID 0000.0001) %MON dynstat_salt_min             =   1.1947837388920E+01
(PID.TID 0000.0001) %MON dynstat_salt_mean            =   3.4725580164368E+01
(PID.TID 0000.0001) %MON dynstat_salt_sd              =   3.7701325519293E-01
(PID.TID 0000.0001) %MON dynstat_salt_del2            =   3.3085031825981E-05
(PID.TID 0000.0001) %MON dynstat_sst_max              =   3.2348836904866E+01
(PID.TID 0000.0001) %MON dynstat_sst_min              =  -1.8079731329635E+00
(PID.TID 0000.0001) %MON dynstat_sst_mean             =   1.8490288690686E+01
(PID.TID 0000.0001) %MON dynstat_sst_sd               =   1.0172987944913E+01
(PID.TID 0000.0001) %MON dynstat_sst_del2             =   8.1887056890608E-04
(PID.TID 0000.0001) %MON dynstat_sss_max              =   3.9132590313882E+01
(PID.TID 0000.0001) %MON dynstat_sss_min              =   1.1947837388920E+01
(PID.TID 0000.0001) %MON dynstat_sss_mean             =   3.4697956434997E+01
(PID.TID 0000.0001) %MON dynstat_sss_sd               =   1.1500787346107E+00
(PID.TID 0000.0001) %MON dynstat_sss_del2             =   9.7377520176758E-04
(PID.TID 0000.0001) %MON forcing_qnet_max             =   7.5460656738281E+02
(PID.TID 0000.0001) %MON forcing_qnet_min             =  -8.5366982188862E+02
(PID.TID 0000.0001) %MON forcing_qnet_mean            =  -5.8285083315561E-01
(PID.TID 0000.0001) %MON forcing_qnet_sd              =   1.8952400019913E+02
(PID.TID 0000.0001) %MON forcing_qnet_del2            =   3.4431135499895E-01
(PID.TID 0000.0001) %MON forcing_qsw_max              =   0.0000000000000E+00
(PID.TID 0000.0001) %MON forcing_qsw_min              =  -1.1068178293285E+02
(PID.TID 0000.0001) %MON forcing_qsw_mean             =  -1.9059559862245E+01
(PID.TID 0000.0001) %MON forcing_qsw_sd               =   2.8165966573291E+01
(PID.TID 0000.0001) %MON forcing_qsw_del2             =   2.2570042094695E-02
(PID.TID 0000.0001) %MON forcing_empmr_max            =   1.9184028496966E-03
(PID.TID 0000.0001) %MON forcing_empmr_min            =  -3.7262238562107E-02
(PID.TID 0000.0001) %MON forcing_empmr_mean           =  -2.2034454093441E-06
(PID.TID 0000.0001) %MON forcing_empmr_sd             =   1.8893201961223E-04
(PID.TID 0000.0001) %MON forcing_empmr_del2           =   2.1160484690879E-06
(PID.TID 0000.0001) %MON forcing_fu_max               =   7.4457994103432E-01
(PID.TID 0000.0001) %MON forcing_fu_min               =  -5.2101913094521E-01
(PID.TID 0000.0001) %MON forcing_fu_mean              =   4.8370580775405E-03
(PID.TID 0000.0001) %MON forcing_fu_sd                =   8.7560529402963E-02
(PID.TID 0000.0001) %MON forcing_fu_del2              =   1.0896474100998E-04
(PID.TID 0000.0001) %MON forcing_fv_max               =   8.3666434884071E-01
(PID.TID 0000.0001) %MON forcing_fv_min               =  -6.8239170312882E-01
(PID.TID 0000.0001) %MON forcing_fv_mean              =  -3.1083964922917E-03
(PID.TID 0000.0001) %MON forcing_fv_sd                =   1.0436759782909E-01
(PID.TID 0000.0001) %MON forcing_fv_del2              =   1.2577794174223E-04
(PID.TID 0000.0001) %MON trAdv_CFL_u_max              =   1.2766018877716E-02
(PID.TID 0000.0001) %MON trAdv_CFL_v_max              =   2.0554421687766E-02
(PID.TID 0000.0001) %MON trAdv_CFL_w_max              =   2.3465113203805E-02
(PID.TID 0000.0001) %MON advcfl_uvel_max              =   1.2860429363496E-02
(PID.TID 0000.0001) %MON advcfl_vvel_max              =   2.1199422993089E-02
(PID.TID 0000.0001) %MON advcfl_wvel_max              =   2.3830954219446E-02
(PID.TID 0000.0001) %MON advcfl_W_hf_max              =   2.3963070477207E-02
(PID.TID 0000.0001) %MON pe_b_mean                    =   5.4787822029779E-04
(PID.TID 0000.0001) %MON ke_max                       =   7.1212289774847E-01
(PID.TID 0000.0001) %MON ke_mean                      =   4.0010857733249E-04
(PID.TID 0000.0001) %MON ke_vol                       =   1.3349975403181E+18
(PID.TID 0000.0001) %MON vort_r_min                   =  -2.2202267918286E-05
(PID.TID 0000.0001) %MON vort_r_max                   =   3.3689210946352E-05
(PID.TID 0000.0001) %MON vort_a_mean                  =  -1.9727864647440E-05
(PID.TID 0000.0001) %MON vort_a_sd                    =   7.4542930788947E-05
(PID.TID 0000.0001) %MON vort_p_mean                  =  -2.1760537606115E-05
(PID.TID 0000.0001) %MON vort_p_sd                    =   9.7246908068965E-05
(PID.TID 0000.0001) %MON surfExpan_theta_mean         =   2.3067585327251E-07
(PID.TID 0000.0001) %MON surfExpan_salt_mean          =   2.8772581700552E-10
(PID.TID 0000.0001) // =======================================================
(PID.TID 0000.0001) // End MONITOR dynamic field statistics
(PID.TID 0000.0001) // =======================================================
(PID.TID 0000.0001) // =======================================================
(PID.TID 0000.0001) // Begin MONITOR SEAICE statistics
(PID.TID 0000.0001) // =======================================================
(PID.TID 0000.0001) %MON seaice_tsnumber              =                   312
(PID.TID 0000.0001) %MON seaice_time_sec              =   2.8080000000000E+05
(PID.TID 0000.0001) %MON seaice_uice_max              =   4.0000000000000E-01
(PID.TID 0000.0001) %MON seaice_uice_min              =  -4.0000000000000E-01
(PID.TID 0000.0001) %MON seaice_uice_mean             =  -8.3054598624025E-03
(PID.TID 0000.0001) %MON seaice_uice_sd               =   1.9802383574176E-01
(PID.TID 0000.0001) %MON seaice_uice_del2             =   2.2931571122150E-04
(PID.TID 0000.0001) %MON seaice_vice_max              =   4.0000000000000E-01
(PID.TID 0000.0001) %MON seaice_vice_min              =  -4.0000000000000E-01
(PID.TID 0000.0001) %MON seaice_vice_mean             =  -2.1960776359499E-02
(PID.TID 0000.0001) %MON seaice_vice_sd               =   2.1302038025672E-01
(PID.TID 0000.0001) %MON seaice_vice_del2             =   2.3932563818061E-04
(PID.TID 0000.0001) %MON seaice_area_max              =   1.0000000000000E+00
(PID.TID 0000.0001) %MON seaice_area_min              =   0.0000000000000E+00
(PID.TID 0000.0001) %MON seaice_area_mean             =   6.8052700430232E-02
(PID.TID 0000.0001) %MON seaice_area_sd               =   2.3376133388011E-01
(PID.TID 0000.0001) %MON seaice_area_del2             =   4.2927080906996E-04
(PID.TID 0000.0001) %MON seaice_heff_max              =   2.5145470093470E+01
(PID.TID 0000.0001) %MON seaice_heff_min              =   0.0000000000000E+00
(PID.TID 0000.0001) %MON seaice_heff_mean             =   2.1494625758663E-01
(PID.TID 0000.0001) %MON seaice_heff_sd               =   1.0690741788759E+00
(PID.TID 0000.0001) %MON seaice_heff_del2             =   3.8863522318916E-03
(PID.TID 0000.0001) %MON seaice_hsnow_max             =   8.3051735745103E+00
(PID.TID 0000.0001) %MON seaice_hsnow_min             =   0.0000000000000E+00
(PID.TID 0000.0001) %MON seaice_hsnow_mean            =   2.4345570985309E-02
(PID.TID 0000.0001) %MON seaice_hsnow_sd              =   1.5707286408156E-01
(PID.TID 0000.0001) %MON seaice_hsnow_del2            =   1.2482672055299E-03
(PID.TID 0000.0001) // =======================================================
(PID.TID 0000.0001) // End MONITOR SEAICE statistics
(PID.TID 0000.0001) // =======================================================
 Computing Diagnostic #     86  oceQnet      Counter:       4   Parms: SM      U1      
 Computing Diagnostic #     87  oceQsw       Counter:       4   Parms: SM      U1      
 Computing Diagnostic #     84  oceFWflx     Counter:       4   Parms: SM      U1      
 Computing Diagnostic #     85  oceSflux     Counter:       4   Parms: SM      U1      
 Computing Diagnostic #     80  oceTAUX      Counter:       4   Parms: UU      U1      
           Vector  Mate for  oceTAUX      Diagnostic #     81  oceTAUY  exists 
 Computing Diagnostic #     81  oceTAUY      Counter:       4   Parms: VV      U1      
           Vector  Mate for  oceTAUY      Diagnostic #     80  oceTAUX  exists 
 Computing Diagnostic #     26  THETA        Counter:       4   Parms: SMR     MR      
 Computing Diagnostic #     27  SALT         Counter:       4   Parms: SMR     MR      
 Computing Diagnostic #     30  UVEL         Counter:       4   Parms: UUR     MR      
           Vector  Mate for  UVEL         Diagnostic #     31  VVEL     exists 
 Computing Diagnostic #     31  VVEL         Counter:       4   Parms: VVR     MR      
           Vector  Mate for  VVEL         Diagnostic #     30  UVEL     exists 
 Computing Diagnostic #    214  SIarea       Counter:       4   Parms: SM      M1      
 Computing Diagnostic #    217  SIheff       Counter:       4   Parms: SM      M1      
 Computing Diagnostic #    219  SIhsnow      Counter:       4   Parms: SM      M1      
 Computing Diagnostic #     83  sIceLoad     Counter:       4   Parms: SM      U1      
 Computing Diagnostic #    223  SIuice       Counter:       4   Parms: UU      M1      
           Vector  Mate for  SIuice       Diagnostic #    224  SIvice   exists 
 Computing Diagnostic #    224  SIvice       Counter:       4   Parms: VV      M1      
           Vector  Mate for  SIvice       Diagnostic #    223  SIuice   exists 
 Computing Diagnostic #    225  SItaux       Counter:       4   Parms: UU      U1      
           Vector  Mate for  SItaux       Diagnostic #    226  SItauy   exists 
 Computing Diagnostic #    226  SItauy       Counter:       4   Parms: VV      U1      
           Vector  Mate for  SItauy       Diagnostic #    225  SItaux   exists 
 Computing Diagnostic #    285  SIareaN      Counter:       4   Parms: SM      MX      
 Computing Diagnostic #    284  SIheffN      Counter:       4   Parms: SM      MX      
 Computing Diagnostic #    286  SIhsnowN     Counter:       4   Parms: SM      MX      
 Compute Stats, Diag. #    214  SIarea    vol(   0 ): 3.580E+14  Parms: SM      M1      
 Compute Stats, Diag. #    217  SIheff    vol(   0 ): 3.580E+14  Parms: SM      M1      
 Compute Stats, Diag. #    219  SIhsnow   vol(   0 ): 3.580E+14  Parms: SM      M1      
 Compute Stats, Diag. #     83  sIceLoad  vol(   0 ): 3.580E+14  Parms: SM      U1      
 Compute Stats, Diag. #    223  SIuice    vol(   0 ): 3.513E+14  Parms: UU      M1      
 Compute Stats, Diag. #    224  SIvice    vol(   0 ): 3.508E+14  Parms: VV      M1      
 Compute Stats, Diag. #    225  SItaux    vol(   0 ): 3.513E+14  Parms: UU      U1      
 Compute Stats, Diag. #    226  SItauy    vol(   0 ): 3.508E+14  Parms: VV      U1      
 cg2d: Sum(rhs),rhsMax =   2.96024187097711E+01  2.91064996136381E-01
 Compute Stats, Diag. #    214  SIarea    vol(   0 ): 3.580E+14  Parms: SM      M1      
 Compute Stats, Diag. #    217  SIheff    vol(   0 ): 3.580E+14  Parms: SM      M1      
 Compute Stats, Diag. #    219  SIhsnow   vol(   0 ): 3.580E+14  Parms: SM      M1      
 Compute Stats, Diag. #     83  sIceLoad  vol(   0 ): 3.580E+14  Parms: SM      U1      
 Compute Stats, Diag. #    223  SIuice    vol(   0 ): 3.513E+14  Parms: UU      M1      
 Compute Stats, Diag. #    224  SIvice    vol(   0 ): 3.508E+14  Parms: VV      M1      
 Compute Stats, Diag. #    225  SItaux    vol(   0 ): 3.513E+14  Parms: UU      U1      
 Compute Stats, Diag. #    226  SItauy    vol(   0 ): 3.508E+14  Parms: VV      U1      
 cg2d: Sum(rhs),rhsMax =   2.95343603701537E+01  2.91104765659068E-01
 Compute Stats, Diag. #    214  SIarea    vol(   0 ): 3.580E+14  Parms: SM      M1      
 Compute Stats, Diag. #    217  SIheff    vol(   0 ): 3.580E+14  Parms: SM      M1      
 Compute Stats, Diag. #    219  SIhsnow   vol(   0 ): 3.580E+14  Parms: SM      M1      
 Compute Stats, Diag. #     83  sIceLoad  vol(   0 ): 3.580E+14  Parms: SM      U1      
 Compute Stats, Diag. #    223  SIuice    vol(   0 ): 3.513E+14  Parms: UU      M1      
 Compute Stats, Diag. #    224  SIvice    vol(   0 ): 3.508E+14  Parms: VV      M1      
 Compute Stats, Diag. #    225  SItaux    vol(   0 ): 3.513E+14  Parms: UU      U1      
 Compute Stats, Diag. #    226  SItauy    vol(   0 ): 3.508E+14  Parms: VV      U1      
 cg2d: Sum(rhs),rhsMax =   2.94618402018349E+01  2.91145265150700E-01
 Compute Stats, Diag. #    214  SIarea    vol(   0 ): 3.580E+14  Parms: SM      M1      
 Compute Stats, Diag. #    217  SIheff    vol(   0 ): 3.580E+14  Parms: SM      M1      
 Compute Stats, Diag. #    219  SIhsnow   vol(   0 ): 3.580E+14  Parms: SM      M1      
 Compute Stats, Diag. #     83  sIceLoad  vol(   0 ): 3.580E+14  Parms: SM      U1      
 Compute Stats, Diag. #    223  SIuice    vol(   0 ): 3.513E+14  Parms: UU      M1      
 Compute Stats, Diag. #    224  SIvice    vol(   0 ): 3.508E+14  Parms: VV      M1      
 Compute Stats, Diag. #    225  SItaux    vol(   0 ): 3.513E+14  Parms: UU      U1      
 Compute Stats, Diag. #    226  SItauy    vol(   0 ): 3.508E+14  Parms: VV      U1      
 cg2d: Sum(rhs),rhsMax =   2.93893297854846E+01  2.91184666588295E-01
 Computing Diagnostic #     86  oceQnet      Counter:       4   Parms: SM      U1      
 Computing Diagnostic #     87  oceQsw       Counter:       4   Parms: SM      U1      
 Computing Diagnostic #     84  oceFWflx     Counter:       4   Parms: SM      U1      
 Computing Diagnostic #     85  oceSflux     Counter:       4   Parms: SM      U1      
 Computing Diagnostic #     80  oceTAUX      Counter:       4   Parms: UU      U1      
           Vector  Mate for  oceTAUX      Diagnostic #     81  oceTAUY  exists 
 Computing Diagnostic #     81  oceTAUY      Counter:       4   Parms: VV      U1      
           Vector  Mate for  oceTAUY      Diagnostic #     80  oceTAUX  exists 
 Computing Diagnostic #     26  THETA        Counter:       4   Parms: SMR     MR      
 Computing Diagnostic #     27  SALT         Counter:       4   Parms: SMR     MR      
 Computing Diagnostic #     30  UVEL         Counter:       4   Parms: UUR     MR      
           Vector  Mate for  UVEL         Diagnostic #     31  VVEL     exists 
 Computing Diagnostic #     31  VVEL         Counter:       4   Parms: VVR     MR      
           Vector  Mate for  VVEL         Diagnostic #     30  UVEL     exists 
 Computing Diagnostic #    214  SIarea       Counter:       4   Parms: SM      M1      
 Computing Diagnostic #    217  SIheff       Counter:       4   Parms: SM      M1      
 Computing Diagnostic #    219  SIhsnow      Counter:       4   Parms: SM      M1      
 Computing Diagnostic #     83  sIceLoad     Counter:       4   Parms: SM      U1      
 Computing Diagnostic #    223  SIuice       Counter:       4   Parms: UU      M1      
           Vector  Mate for  SIuice       Diagnostic #    224  SIvice   exists 
 Computing Diagnostic #    224  SIvice       Counter:       4   Parms: VV      M1      
           Vector  Mate for  SIvice       Diagnostic #    223  SIuice   exists 
 Computing Diagnostic #    225  SItaux       Counter:       4   Parms: UU      U1      
           Vector  Mate for  SItaux       Diagnostic #    226  SItauy   exists 
 Computing Diagnostic #    226  SItauy       Counter:       4   Parms: VV      U1      
           Vector  Mate for  SItauy       Diagnostic #    225  SItaux   exists 
 Computing Diagnostic #    285  SIareaN      Counter:       4   Parms: SM      MX      
 Computing Diagnostic #    284  SIheffN      Counter:       4   Parms: SM      MX      
 Computing Diagnostic #    286  SIhsnowN     Counter:       4   Parms: SM      MX      
 Compute Stats, Diag. #    214  SIarea    vol(   0 ): 3.580E+14  Parms: SM      M1      
 Compute Stats, Diag. #    217  SIheff    vol(   0 ): 3.580E+14  Parms: SM      M1      
 Compute Stats, Diag. #    219  SIhsnow   vol(   0 ): 3.580E+14  Parms: SM      M1      
 Compute Stats, Diag. #     83  sIceLoad  vol(   0 ): 3.580E+14  Parms: SM      U1      
 Compute Stats, Diag. #    223  SIuice    vol(   0 ): 3.513E+14  Parms: UU      M1      
 Compute Stats, Diag. #    224  SIvice    vol(   0 ): 3.508E+14  Parms: VV      M1      
 Compute Stats, Diag. #    225  SItaux    vol(   0 ): 3.513E+14  Parms: UU      U1      
 Compute Stats, Diag. #    226  SItauy    vol(   0 ): 3.508E+14  Parms: VV      U1      
 cg2d: Sum(rhs),rhsMax =   2.93106428111773E+01  2.91221642662940E-01
 Compute Stats, Diag. #    214  SIarea    vol(   0 ): 3.580E+14  Parms: SM      M1      
 Compute Stats, Diag. #    217  SIheff    vol(   0 ): 3.580E+14  Parms: SM      M1      
 Compute Stats, Diag. #    219  SIhsnow   vol(   0 ): 3.580E+14  Parms: SM      M1      
 Compute Stats, Diag. #     83  sIceLoad  vol(   0 ): 3.580E+14  Parms: SM      U1      
 Compute Stats, Diag. #    223  SIuice    vol(   0 ): 3.513E+14  Parms: UU      M1      
 Compute Stats, Diag. #    224  SIvice    vol(   0 ): 3.508E+14  Parms: VV      M1      
 Compute Stats, Diag. #    225  SItaux    vol(   0 ): 3.513E+14  Parms: UU      U1      
 Compute Stats, Diag. #    226  SItauy    vol(   0 ): 3.508E+14  Parms: VV      U1      
 cg2d: Sum(rhs),rhsMax =   2.92299086150246E+01  2.91255165613117E-01
 Compute Stats, Diag. #    214  SIarea    vol(   0 ): 3.580E+14  Parms: SM      M1      
 Compute Stats, Diag. #    217  SIheff    vol(   0 ): 3.580E+14  Parms: SM      M1      
 Compute Stats, Diag. #    219  SIhsnow   vol(   0 ): 3.580E+14  Parms: SM      M1      
 Compute Stats, Diag. #     83  sIceLoad  vol(   0 ): 3.580E+14  Parms: SM      U1      
 Compute Stats, Diag. #    223  SIuice    vol(   0 ): 3.513E+14  Parms: UU      M1      
 Compute Stats, Diag. #    224  SIvice    vol(   0 ): 3.508E+14  Parms: VV      M1      
 Compute Stats, Diag. #    225  SItaux    vol(   0 ): 3.513E+14  Parms: UU      U1      
 Compute Stats, Diag. #    226  SItauy    vol(   0 ): 3.508E+14  Parms: VV      U1      
 cg2d: Sum(rhs),rhsMax =   2.91458463849989E+01  2.91283853641496E-01
 Compute Stats, Diag. #    214  SIarea    vol(   0 ): 3.580E+14  Parms: SM      M1      
 Compute Stats, Diag. #    217  SIheff    vol(   0 ): 3.580E+14  Parms: SM      M1      
 Compute Stats, Diag. #    219  SIhsnow   vol(   0 ): 3.580E+14  Parms: SM      M1      
 Compute Stats, Diag. #     83  sIceLoad  vol(   0 ): 3.580E+14  Parms: SM      U1      
 Compute Stats, Diag. #    223  SIuice    vol(   0 ): 3.513E+14  Parms: UU      M1      
 Compute Stats, Diag. #    224  SIvice    vol(   0 ): 3.508E+14  Parms: VV      M1      
 Compute Stats, Diag. #    225  SItaux    vol(   0 ): 3.513E+14  Parms: UU      U1      
 Compute Stats, Diag. #    226  SItauy    vol(   0 ): 3.508E+14  Parms: VV      U1      
 cg2d: Sum(rhs),rhsMax =   2.90730399337437E+01  2.91306238626726E-01
(PID.TID 0000.0001)      cg2d_init_res =   8.36010777950298E-02
(PID.TID 0000.0001)      cg2d_iters(min,last) =      -1      26
(PID.TID 0000.0001)      cg2d_last_res =   2.44298727165502E-05
(PID.TID 0000.0001) // =======================================================
(PID.TID 0000.0001) // Begin MONITOR dynamic field statistics
(PID.TID 0000.0001) // =======================================================
(PID.TID 0000.0001) %MON time_tsnumber                =                   320
(PID.TID 0000.0001) %MON time_secondsf                =   2.8800000000000E+05
(PID.TID 0000.0001) %MON dynstat_eta_max              =   1.0479204727766E+00
(PID.TID 0000.0001) %MON dynstat_eta_min              =  -1.8994956849365E+00
(PID.TID 0000.0001) %MON dynstat_eta_mean             =  -9.1967310623292E-04
(PID.TID 0000.0001) %MON dynstat_eta_sd               =   6.4429948351213E-01
(PID.TID 0000.0001) %MON dynstat_eta_del2             =   6.1915085521127E-05
(PID.TID 0000.0001) %MON dynstat_uvel_max             =   9.3618785768584E-01
(PID.TID 0000.0001) %MON dynstat_uvel_min             =  -7.4877780505507E-01
(PID.TID 0000.0001) %MON dynstat_uvel_mean            =   1.1053740549032E-03
(PID.TID 0000.0001) %MON dynstat_uvel_sd              =   1.9585494177539E-02
(PID.TID 0000.0001) %MON dynstat_uvel_del2            =   8.1204658896289E-06
(PID.TID 0000.0001) %MON dynstat_vvel_max             =   1.1853557509713E+00
(PID.TID 0000.0001) %MON dynstat_vvel_min             =  -8.6012874423575E-01
(PID.TID 0000.0001) %MON dynstat_vvel_mean            =   1.0454256069617E-03
(PID.TID 0000.0001) %MON dynstat_vvel_sd              =   2.1019196599713E-02
(PID.TID 0000.0001) %MON dynstat_vvel_del2            =   8.5009442926830E-06
(PID.TID 0000.0001) %MON dynstat_wvel_max             =   4.1494777639157E-04
(PID.TID 0000.0001) %MON dynstat_wvel_min             =  -7.9300489583847E-04
(PID.TID 0000.0001) %MON dynstat_wvel_mean            =   2.1419664017711E-08
(PID.TID 0000.0001) %MON dynstat_wvel_sd              =   2.0688013707143E-05
(PID.TID 0000.0001) %MON dynstat_wvel_del2            =   1.7207261431914E-08
(PID.TID 0000.0001) %MON dynstat_theta_max            =   3.2358778962026E+01
(PID.TID 0000.0001) %MON dynstat_theta_min            =  -2.0565132285097E+00
(PID.TID 0000.0001) %MON dynstat_theta_mean           =   3.5904410929365E+00
(PID.TID 0000.0001) %MON dynstat_theta_sd             =   4.4363203558702E+00
(PID.TID 0000.0001) %MON dynstat_theta_del2           =   9.7111357600835E-05
(PID.TID 0000.0001) %MON dynstat_salt_max             =   4.0711547240680E+01
(PID.TID 0000.0001) %MON dynstat_salt_min             =   1.1990366450092E+01
(PID.TID 0000.0001) %MON dynstat_salt_mean            =   3.4725579894996E+01
(PID.TID 0000.0001) %MON dynstat_salt_sd              =   3.7701266480521E-01
(PID.TID 0000.0001) %MON dynstat_salt_del2            =   3.3071433699895E-05
(PID.TID 0000.0001) %MON dynstat_sst_max              =   3.2358778962026E+01
(PID.TID 0000.0001) %MON dynstat_sst_min              =  -1.8068306432328E+00
(PID.TID 0000.0001) %MON dynstat_sst_mean             =   1.8488564220426E+01
(PID.TID 0000.0001) %MON dynstat_sst_sd               =   1.0175089124662E+01
(PID.TID 0000.0001) %MON dynstat_sst_del2             =   8.1920290788616E-04
(PID.TID 0000.0001) %MON dynstat_sss_max              =   3.9130873670067E+01
(PID.TID 0000.0001) %MON dynstat_sss_min              =   1.1990366450092E+01
(PID.TID 0000.0001) %MON dynstat_sss_mean             =   3.4698120379736E+01
(PID.TID 0000.0001) %MON dynstat_sss_sd               =   1.1504931136648E+00
(PID.TID 0000.0001) %MON dynstat_sss_del2             =   9.7346038629079E-04
(PID.TID 0000.0001) %MON forcing_qnet_max             =   7.4972912597656E+02
(PID.TID 0000.0001) %MON forcing_qnet_min             =  -7.7040527489932E+02
(PID.TID 0000.0001) %MON forcing_qnet_mean            =   1.5530971346266E+01
(PID.TID 0000.0001) %MON forcing_qnet_sd              =   1.8354273400879E+02
(PID.TID 0000.0001) %MON forcing_qnet_del2            =   3.3052372164270E-01
(PID.TID 0000.0001) %MON forcing_qsw_max              =   0.0000000000000E+00
(PID.TID 0000.0001) %MON forcing_qsw_min              =  -1.0742628841536E+02
(PID.TID 0000.0001) %MON forcing_qsw_mean             =  -1.6974737549664E+01
(PID.TID 0000.0001) %MON forcing_qsw_sd               =   2.6734296207946E+01
(PID.TID 0000.0001) %MON forcing_qsw_del2             =   2.1252755267032E-02
(PID.TID 0000.0001) %MON forcing_empmr_max            =   1.3355849077925E-03
(PID.TID 0000.0001) %MON forcing_empmr_min            =  -7.2446547448635E-02
(PID.TID 0000.0001) %MON forcing_empmr_mean           =  -2.6332116649059E-06
(PID.TID 0000.0001) %MON forcing_empmr_sd             =   2.4399091696531E-04
(PID.TID 0000.0001) %MON forcing_empmr_del2           =   3.4543833482763E-06
(PID.TID 0000.0001) %MON forcing_fu_max               =   7.9696008563042E-01
(PID.TID 0000.0001) %MON forcing_fu_min               =  -4.9095097184182E-01
(PID.TID 0000.0001) %MON forcing_fu_mean              =   5.4518769442244E-03
(PID.TID 0000.0001) %MON forcing_fu_sd                =   8.7629187994210E-02
(PID.TID 0000.0001) %MON forcing_fu_del2              =   1.0990838565991E-04
(PID.TID 0000.0001) %MON forcing_fv_max               =   8.0802428722382E-01
(PID.TID 0000.0001) %MON forcing_fv_min               =  -6.5262544155121E-01
(PID.TID 0000.0001) %MON forcing_fv_mean              =  -3.6957388221086E-03
(PID.TID 0000.0001) %MON forcing_fv_sd                =   1.0322139381403E-01
(PID.TID 0000.0001) %MON forcing_fv_del2              =   1.2229467176213E-04
(PID.TID 0000.0001) %MON trAdv_CFL_u_max              =   1.2299340102106E-02
(PID.TID 0000.0001) %MON trAdv_CFL_v_max              =   2.0388059379571E-02
(PID.TID 0000.0001) %MON trAdv_CFL_w_max              =   2.2766508898275E-02
(PID.TID 0000.0001) %MON advcfl_uvel_max              =   1.2388465482521E-02
(PID.TID 0000.0001) %MON advcfl_vvel_max              =   2.1041136342571E-02
(PID.TID 0000.0001) %MON advcfl_wvel_max              =   2.2517752310046E-02
(PID.TID 0000.0001) %MON advcfl_W_hf_max              =   2.2665625492157E-02
(PID.TID 0000.0001) %MON pe_b_mean                    =   5.4605304946179E-04
(PID.TID 0000.0001) %MON ke_max                       =   7.0032859793446E-01
(PID.TID 0000.0001) %MON ke_mean                      =   3.9912013643348E-04
(PID.TID 0000.0001) %MON ke_vol                       =   1.3349975468590E+18
(PID.TID 0000.0001) %MON vort_r_min                   =  -2.1883722621755E-05
(PID.TID 0000.0001) %MON vort_r_max                   =   3.3341670011091E-05
(PID.TID 0000.0001) %MON vort_a_mean                  =  -1.9727864647440E-05
(PID.TID 0000.0001) %MON vort_a_sd                    =   7.4542930759428E-05
(PID.TID 0000.0001) %MON vort_p_mean                  =  -2.1760537683977E-05
(PID.TID 0000.0001) %MON vort_p_sd                    =   9.7246853386663E-05
(PID.TID 0000.0001) %MON surfExpan_theta_mean         =   1.1123621235190E-08
(PID.TID 0000.0001) %MON surfExpan_salt_mean          =   2.2049146984731E-09
(PID.TID 0000.0001) // =======================================================
(PID.TID 0000.0001) // End MONITOR dynamic field statistics
(PID.TID 0000.0001) // =======================================================
(PID.TID 0000.0001) // =======================================================
(PID.TID 0000.0001) // Begin MONITOR SEAICE statistics
(PID.TID 0000.0001) // =======================================================
(PID.TID 0000.0001) %MON seaice_tsnumber              =                   320
(PID.TID 0000.0001) %MON seaice_time_sec              =   2.8800000000000E+05
(PID.TID 0000.0001) %MON seaice_uice_max              =   4.0000000000000E-01
(PID.TID 0000.0001) %MON seaice_uice_min              =  -4.0000000000000E-01
(PID.TID 0000.0001) %MON seaice_uice_mean             =  -8.3054598624025E-03
(PID.TID 0000.0001) %MON seaice_uice_sd               =   1.9802383574176E-01
(PID.TID 0000.0001) %MON seaice_uice_del2             =   2.2931571122150E-04
(PID.TID 0000.0001) %MON seaice_vice_max              =   4.0000000000000E-01
(PID.TID 0000.0001) %MON seaice_vice_min              =  -4.0000000000000E-01
(PID.TID 0000.0001) %MON seaice_vice_mean             =  -2.1960776359499E-02
(PID.TID 0000.0001) %MON seaice_vice_sd               =   2.1302038025672E-01
(PID.TID 0000.0001) %MON seaice_vice_del2             =   2.3932563818061E-04
(PID.TID 0000.0001) %MON seaice_area_max              =   1.0000000000000E+00
(PID.TID 0000.0001) %MON seaice_area_min              =   0.0000000000000E+00
(PID.TID 0000.0001) %MON seaice_area_mean             =   6.7990904392509E-02
(PID.TID 0000.0001) %MON seaice_area_sd               =   2.3365263119371E-01
(PID.TID 0000.0001) %MON seaice_area_del2             =   4.2826462243708E-04
(PID.TID 0000.0001) %MON seaice_heff_max              =   2.5142842230620E+01
(PID.TID 0000.0001) %MON seaice_heff_min              =   0.0000000000000E+00
(PID.TID 0000.0001) %MON seaice_heff_mean             =   2.1488915715388E-01
(PID.TID 0000.0001) %MON seaice_heff_sd               =   1.0690059966180E+00
(PID.TID 0000.0001) %MON seaice_heff_del2             =   3.8853792072207E-03
(PID.TID 0000.0001) %MON seaice_hsnow_max             =   8.3043198732485E+00
(PID.TID 0000.0001) %MON seaice_hsnow_min             =   0.0000000000000E+00
(PID.TID 0000.0001) %MON seaice_hsnow_mean            =   2.4340203597646E-02
(PID.TID 0000.0001) %MON seaice_hsnow_sd              =   1.5705281189228E-01
(PID.TID 0000.0001) %MON seaice_hsnow_del2            =   1.2479990962552E-03
(PID.TID 0000.0001) // =======================================================
(PID.TID 0000.0001) // End MONITOR SEAICE statistics
(PID.TID 0000.0001) // =======================================================
 Computing Diagnostic #     86  oceQnet      Counter:       4   Parms: SM      U1      
 Computing Diagnostic #     87  oceQsw       Counter:       4   Parms: SM      U1      
 Computing Diagnostic #     84  oceFWflx     Counter:       4   Parms: SM      U1      
 Computing Diagnostic #     85  oceSflux     Counter:       4   Parms: SM      U1      
 Computing Diagnostic #     80  oceTAUX      Counter:       4   Parms: UU      U1      
           Vector  Mate for  oceTAUX      Diagnostic #     81  oceTAUY  exists 
 Computing Diagnostic #     81  oceTAUY      Counter:       4   Parms: VV      U1      
           Vector  Mate for  oceTAUY      Diagnostic #     80  oceTAUX  exists 
 Computing Diagnostic #     26  THETA        Counter:       4   Parms: SMR     MR      
 Computing Diagnostic #     27  SALT         Counter:       4   Parms: SMR     MR      
 Computing Diagnostic #     30  UVEL         Counter:       4   Parms: UUR     MR      
           Vector  Mate for  UVEL         Diagnostic #     31  VVEL     exists 
 Computing Diagnostic #     31  VVEL         Counter:       4   Parms: VVR     MR      
           Vector  Mate for  VVEL         Diagnostic #     30  UVEL     exists 
 Computing Diagnostic #    214  SIarea       Counter:       4   Parms: SM      M1      
 Computing Diagnostic #    217  SIheff       Counter:       4   Parms: SM      M1      
 Computing Diagnostic #    219  SIhsnow      Counter:       4   Parms: SM      M1      
 Computing Diagnostic #     83  sIceLoad     Counter:       4   Parms: SM      U1      
 Computing Diagnostic #    223  SIuice       Counter:       4   Parms: UU      M1      
           Vector  Mate for  SIuice       Diagnostic #    224  SIvice   exists 
 Computing Diagnostic #    224  SIvice       Counter:       4   Parms: VV      M1      
           Vector  Mate for  SIvice       Diagnostic #    223  SIuice   exists 
 Computing Diagnostic #    225  SItaux       Counter:       4   Parms: UU      U1      
           Vector  Mate for  SItaux       Diagnostic #    226  SItauy   exists 
 Computing Diagnostic #    226  SItauy       Counter:       4   Parms: VV      U1      
           Vector  Mate for  SItauy       Diagnostic #    225  SItaux   exists 
 Computing Diagnostic #    285  SIareaN      Counter:       4   Parms: SM      MX      
 Computing Diagnostic #    284  SIheffN      Counter:       4   Parms: SM      MX      
 Computing Diagnostic #    286  SIhsnowN     Counter:       4   Parms: SM      MX      
 Compute Stats, Diag. #    214  SIarea    vol(   0 ): 3.580E+14  Parms: SM      M1      
 Compute Stats, Diag. #    217  SIheff    vol(   0 ): 3.580E+14  Parms: SM      M1      
 Compute Stats, Diag. #    219  SIhsnow   vol(   0 ): 3.580E+14  Parms: SM      M1      
 Compute Stats, Diag. #     83  sIceLoad  vol(   0 ): 3.580E+14  Parms: SM      U1      
 Compute Stats, Diag. #    223  SIuice    vol(   0 ): 3.513E+14  Parms: UU      M1      
 Compute Stats, Diag. #    224  SIvice    vol(   0 ): 3.508E+14  Parms: VV      M1      
 Compute Stats, Diag. #    225  SItaux    vol(   0 ): 3.513E+14  Parms: UU      U1      
 Compute Stats, Diag. #    226  SItauy    vol(   0 ): 3.508E+14  Parms: VV      U1      
 cg2d: Sum(rhs),rhsMax =   2.90010014979390E+01  2.91321639392380E-01
 Compute Stats, Diag. #    214  SIarea    vol(   0 ): 3.580E+14  Parms: SM      M1      
 Compute Stats, Diag. #    217  SIheff    vol(   0 ): 3.580E+14  Parms: SM      M1      
 Compute Stats, Diag. #    219  SIhsnow   vol(   0 ): 3.580E+14  Parms: SM      M1      
 Compute Stats, Diag. #     83  sIceLoad  vol(   0 ): 3.580E+14  Parms: SM      U1      
 Compute Stats, Diag. #    223  SIuice    vol(   0 ): 3.513E+14  Parms: UU      M1      
 Compute Stats, Diag. #    224  SIvice    vol(   0 ): 3.508E+14  Parms: VV      M1      
 Compute Stats, Diag. #    225  SItaux    vol(   0 ): 3.513E+14  Parms: UU      U1      
 Compute Stats, Diag. #    226  SItauy    vol(   0 ): 3.508E+14  Parms: VV      U1      
 cg2d: Sum(rhs),rhsMax =   2.89205415100317E+01  2.91328973964615E-01
 Compute Stats, Diag. #    214  SIarea    vol(   0 ): 3.580E+14  Parms: SM      M1      
 Compute Stats, Diag. #    217  SIheff    vol(   0 ): 3.580E+14  Parms: SM      M1      
 Compute Stats, Diag. #    219  SIhsnow   vol(   0 ): 3.580E+14  Parms: SM      M1      
 Compute Stats, Diag. #     83  sIceLoad  vol(   0 ): 3.580E+14  Parms: SM      U1      
 Compute Stats, Diag. #    223  SIuice    vol(   0 ): 3.513E+14  Parms: UU      M1      
 Compute Stats, Diag. #    224  SIvice    vol(   0 ): 3.508E+14  Parms: VV      M1      
 Compute Stats, Diag. #    225  SItaux    vol(   0 ): 3.513E+14  Parms: UU      U1      
 Compute Stats, Diag. #    226  SItauy    vol(   0 ): 3.508E+14  Parms: VV      U1      
 cg2d: Sum(rhs),rhsMax =   2.88377105654166E+01  2.91327494735750E-01
 Compute Stats, Diag. #    214  SIarea    vol(   0 ): 3.580E+14  Parms: SM      M1      
 Compute Stats, Diag. #    217  SIheff    vol(   0 ): 3.580E+14  Parms: SM      M1      
 Compute Stats, Diag. #    219  SIhsnow   vol(   0 ): 3.580E+14  Parms: SM      M1      
 Compute Stats, Diag. #     83  sIceLoad  vol(   0 ): 3.580E+14  Parms: SM      U1      
 Compute Stats, Diag. #    223  SIuice    vol(   0 ): 3.513E+14  Parms: UU      M1      
 Compute Stats, Diag. #    224  SIvice    vol(   0 ): 3.508E+14  Parms: VV      M1      
 Compute Stats, Diag. #    225  SItaux    vol(   0 ): 3.513E+14  Parms: UU      U1      
 Compute Stats, Diag. #    226  SItauy    vol(   0 ): 3.508E+14  Parms: VV      U1      
 cg2d: Sum(rhs),rhsMax =   2.87580187267890E+01  2.91316353434276E-01
 Computing Diagnostic #     86  oceQnet      Counter:       4   Parms: SM      U1      
 Computing Diagnostic #     87  oceQsw       Counter:       4   Parms: SM      U1      
 Computing Diagnostic #     84  oceFWflx     Counter:       4   Parms: SM      U1      
 Computing Diagnostic #     85  oceSflux     Counter:       4   Parms: SM      U1      
 Computing Diagnostic #     80  oceTAUX      Counter:       4   Parms: UU      U1      
           Vector  Mate for  oceTAUX      Diagnostic #     81  oceTAUY  exists 
 Computing Diagnostic #     81  oceTAUY      Counter:       4   Parms: VV      U1      
           Vector  Mate for  oceTAUY      Diagnostic #     80  oceTAUX  exists 
 Computing Diagnostic #     26  THETA        Counter:       4   Parms: SMR     MR      
 Computing Diagnostic #     27  SALT         Counter:       4   Parms: SMR     MR      
 Computing Diagnostic #     30  UVEL         Counter:       4   Parms: UUR     MR      
           Vector  Mate for  UVEL         Diagnostic #     31  VVEL     exists 
 Computing Diagnostic #     31  VVEL         Counter:       4   Parms: VVR     MR      
           Vector  Mate for  VVEL         Diagnostic #     30  UVEL     exists 
 Computing Diagnostic #    214  SIarea       Counter:       4   Parms: SM      M1      
 Computing Diagnostic #    217  SIheff       Counter:       4   Parms: SM      M1      
 Computing Diagnostic #    219  SIhsnow      Counter:       4   Parms: SM      M1      
 Computing Diagnostic #     83  sIceLoad     Counter:       4   Parms: SM      U1      
 Computing Diagnostic #    223  SIuice       Counter:       4   Parms: UU      M1      
           Vector  Mate for  SIuice       Diagnostic #    224  SIvice   exists 
 Computing Diagnostic #    224  SIvice       Counter:       4   Parms: VV      M1      
           Vector  Mate for  SIvice       Diagnostic #    223  SIuice   exists 
 Computing Diagnostic #    225  SItaux       Counter:       4   Parms: UU      U1      
           Vector  Mate for  SItaux       Diagnostic #    226  SItauy   exists 
 Computing Diagnostic #    226  SItauy       Counter:       4   Parms: VV      U1      
           Vector  Mate for  SItauy       Diagnostic #    225  SItaux   exists 
 Computing Diagnostic #    285  SIareaN      Counter:       4   Parms: SM      MX      
 Computing Diagnostic #    284  SIheffN      Counter:       4   Parms: SM      MX      
 Computing Diagnostic #    286  SIhsnowN     Counter:       4   Parms: SM      MX      
 Compute Stats, Diag. #    214  SIarea    vol(   0 ): 3.580E+14  Parms: SM      M1      
 Compute Stats, Diag. #    217  SIheff    vol(   0 ): 3.580E+14  Parms: SM      M1      
 Compute Stats, Diag. #    219  SIhsnow   vol(   0 ): 3.580E+14  Parms: SM      M1      
 Compute Stats, Diag. #     83  sIceLoad  vol(   0 ): 3.580E+14  Parms: SM      U1      
 Compute Stats, Diag. #    223  SIuice    vol(   0 ): 3.513E+14  Parms: UU      M1      
 Compute Stats, Diag. #    224  SIvice    vol(   0 ): 3.508E+14  Parms: VV      M1      
 Compute Stats, Diag. #    225  SItaux    vol(   0 ): 3.513E+14  Parms: UU      U1      
 Compute Stats, Diag. #    226  SItauy    vol(   0 ): 3.508E+14  Parms: VV      U1      
 cg2d: Sum(rhs),rhsMax =   2.86715506190753E+01  2.91294839698765E-01
 Compute Stats, Diag. #    214  SIarea    vol(   0 ): 3.580E+14  Parms: SM      M1      
 Compute Stats, Diag. #    217  SIheff    vol(   0 ): 3.580E+14  Parms: SM      M1      
 Compute Stats, Diag. #    219  SIhsnow   vol(   0 ): 3.580E+14  Parms: SM      M1      
 Compute Stats, Diag. #     83  sIceLoad  vol(   0 ): 3.580E+14  Parms: SM      U1      
 Compute Stats, Diag. #    223  SIuice    vol(   0 ): 3.513E+14  Parms: UU      M1      
 Compute Stats, Diag. #    224  SIvice    vol(   0 ): 3.508E+14  Parms: VV      M1      
 Compute Stats, Diag. #    225  SItaux    vol(   0 ): 3.513E+14  Parms: UU      U1      
 Compute Stats, Diag. #    226  SItauy    vol(   0 ): 3.508E+14  Parms: VV      U1      
 cg2d: Sum(rhs),rhsMax =   2.85818803454916E+01  2.91262071735617E-01
 Compute Stats, Diag. #    214  SIarea    vol(   0 ): 3.580E+14  Parms: SM      M1      
 Compute Stats, Diag. #    217  SIheff    vol(   0 ): 3.580E+14  Parms: SM      M1      
 Compute Stats, Diag. #    219  SIhsnow   vol(   0 ): 3.580E+14  Parms: SM      M1      
 Compute Stats, Diag. #     83  sIceLoad  vol(   0 ): 3.580E+14  Parms: SM      U1      
 Compute Stats, Diag. #    223  SIuice    vol(   0 ): 3.513E+14  Parms: UU      M1      
 Compute Stats, Diag. #    224  SIvice    vol(   0 ): 3.508E+14  Parms: VV      M1      
 Compute Stats, Diag. #    225  SItaux    vol(   0 ): 3.513E+14  Parms: UU      U1      
 Compute Stats, Diag. #    226  SItauy    vol(   0 ): 3.508E+14  Parms: VV      U1      
 cg2d: Sum(rhs),rhsMax =   2.84886241042038E+01  2.91217883601841E-01
 Compute Stats, Diag. #    214  SIarea    vol(   0 ): 3.580E+14  Parms: SM      M1      
 Compute Stats, Diag. #    217  SIheff    vol(   0 ): 3.580E+14  Parms: SM      M1      
 Compute Stats, Diag. #    219  SIhsnow   vol(   0 ): 3.580E+14  Parms: SM      M1      
 Compute Stats, Diag. #     83  sIceLoad  vol(   0 ): 3.580E+14  Parms: SM      U1      
 Compute Stats, Diag. #    223  SIuice    vol(   0 ): 3.513E+14  Parms: UU      M1      
 Compute Stats, Diag. #    224  SIvice    vol(   0 ): 3.508E+14  Parms: VV      M1      
 Compute Stats, Diag. #    225  SItaux    vol(   0 ): 3.513E+14  Parms: UU      U1      
 Compute Stats, Diag. #    226  SItauy    vol(   0 ): 3.508E+14  Parms: VV      U1      
 cg2d: Sum(rhs),rhsMax =   2.83918249376424E+01  2.91161759565838E-01
(PID.TID 0000.0001)      cg2d_init_res =   8.29760587482091E-02
(PID.TID 0000.0001)      cg2d_iters(min,last) =      -1      26
(PID.TID 0000.0001)      cg2d_last_res =   2.67947514047928E-05
(PID.TID 0000.0001) // =======================================================
(PID.TID 0000.0001) // Begin MONITOR dynamic field statistics
(PID.TID 0000.0001) // =======================================================
(PID.TID 0000.0001) %MON time_tsnumber                =                   328
(PID.TID 0000.0001) %MON time_secondsf                =   2.9520000000000E+05
(PID.TID 0000.0001) %MON dynstat_eta_max              =   1.0465632378977E+00
(PID.TID 0000.0001) %MON dynstat_eta_min              =  -1.8971207853845E+00
(PID.TID 0000.0001) %MON dynstat_eta_mean             =  -8.9812410024980E-04
(PID.TID 0000.0001) %MON dynstat_eta_sd               =   6.4308484470987E-01
(PID.TID 0000.0001) %MON dynstat_eta_del2             =   6.1434640172360E-05
(PID.TID 0000.0001) %MON dynstat_uvel_max             =   9.3070478798724E-01
(PID.TID 0000.0001) %MON dynstat_uvel_min             =  -7.1992893203883E-01
(PID.TID 0000.0001) %MON dynstat_uvel_mean            =   1.0458642314151E-03
(PID.TID 0000.0001) %MON dynstat_uvel_sd              =   1.9518725028711E-02
(PID.TID 0000.0001) %MON dynstat_uvel_del2            =   8.0629187979399E-06
(PID.TID 0000.0001) %MON dynstat_vvel_max             =   1.1683045672801E+00
(PID.TID 0000.0001) %MON dynstat_vvel_min             =  -8.5999027882236E-01
(PID.TID 0000.0001) %MON dynstat_vvel_mean            =   1.0080106786185E-03
(PID.TID 0000.0001) %MON dynstat_vvel_sd              =   2.1007765425015E-02
(PID.TID 0000.0001) %MON dynstat_vvel_del2            =   8.4393866724161E-06
(PID.TID 0000.0001) %MON dynstat_wvel_max             =   4.1017452605636E-04
(PID.TID 0000.0001) %MON dynstat_wvel_min             =  -7.8486497517001E-04
(PID.TID 0000.0001) %MON dynstat_wvel_mean            =   1.0898103219430E-08
(PID.TID 0000.0001) %MON dynstat_wvel_sd              =   2.0616718465387E-05
(PID.TID 0000.0001) %MON dynstat_wvel_del2            =   1.6936233451160E-08
(PID.TID 0000.0001) %MON dynstat_theta_max            =   3.2366671850143E+01
(PID.TID 0000.0001) %MON dynstat_theta_min            =  -2.0599060109028E+00
(PID.TID 0000.0001) %MON dynstat_theta_mean           =   3.5904287875785E+00
(PID.TID 0000.0001) %MON dynstat_theta_sd             =   4.4362945131542E+00
(PID.TID 0000.0001) %MON dynstat_theta_del2           =   9.7003372548553E-05
(PID.TID 0000.0001) %MON dynstat_salt_max             =   4.0711547971302E+01
(PID.TID 0000.0001) %MON dynstat_salt_min             =   1.2033536471902E+01
(PID.TID 0000.0001) %MON dynstat_salt_mean            =   3.4725579608856E+01
(PID.TID 0000.0001) %MON dynstat_salt_sd              =   3.7701279696680E-01
(PID.TID 0000.0001) %MON dynstat_salt_del2            =   3.3496608356369E-05
(PID.TID 0000.0001) %MON dynstat_sst_max              =   3.2366671850143E+01
(PID.TID 0000.0001) %MON dynstat_sst_min              =  -1.8064808629674E+00
(PID.TID 0000.0001) %MON dynstat_sst_mean             =   1.8485067828797E+01
(PID.TID 0000.0001) %MON dynstat_sst_sd               =   1.0176288633715E+01
(PID.TID 0000.0001) %MON dynstat_sst_del2             =   8.1927375171111E-04
(PID.TID 0000.0001) %MON dynstat_sss_max              =   3.9129241260520E+01
(PID.TID 0000.0001) %MON dynstat_sss_min              =   1.2033536471902E+01
(PID.TID 0000.0001) %MON dynstat_sss_mean             =   3.4698278185105E+01
(PID.TID 0000.0001) %MON dynstat_sss_sd               =   1.1510079584585E+00
(PID.TID 0000.0001) %MON dynstat_sss_del2             =   9.9591385189864E-04
(PID.TID 0000.0001) %MON forcing_qnet_max             =   7.3128022930276E+02
(PID.TID 0000.0001) %MON forcing_qnet_min             =  -8.2983907424355E+02
(PID.TID 0000.0001) %MON forcing_qnet_mean            =   3.3195743927759E+01
(PID.TID 0000.0001) %MON forcing_qnet_sd              =   1.7748907459193E+02
(PID.TID 0000.0001) %MON forcing_qnet_del2            =   3.1768814712174E-01
(PID.TID 0000.0001) %MON forcing_qsw_max              =   0.0000000000000E+00
(PID.TID 0000.0001) %MON forcing_qsw_min              =  -1.0933347159241E+02
(PID.TID 0000.0001) %MON forcing_qsw_mean             =  -1.4742773775839E+01
(PID.TID 0000.0001) %MON forcing_qsw_sd               =   2.6793950803164E+01
(PID.TID 0000.0001) %MON forcing_qsw_del2             =   1.8974408163587E-02
(PID.TID 0000.0001) %MON forcing_empmr_max            =   1.3913303846493E-03
(PID.TID 0000.0001) %MON forcing_empmr_min            =  -1.2788122892380E-01
(PID.TID 0000.0001) %MON forcing_empmr_mean           =  -3.5009630349329E-06
(PID.TID 0000.0001) %MON forcing_empmr_sd             =   3.7916869739798E-04
(PID.TID 0000.0001) %MON forcing_empmr_del2           =   6.2026356964397E-06
(PID.TID 0000.0001) %MON forcing_fu_max               =   8.2311719655990E-01
(PID.TID 0000.0001) %MON forcing_fu_min               =  -4.7559748589993E-01
(PID.TID 0000.0001) %MON forcing_fu_mean              =   6.0622648391753E-03
(PID.TID 0000.0001) %MON forcing_fu_sd                =   8.8013797349247E-02
(PID.TID 0000.0001) %MON forcing_fu_del2              =   1.1212160711226E-04
(PID.TID 0000.0001) %MON forcing_fv_max               =   8.1319746375084E-01
(PID.TID 0000.0001) %MON forcing_fv_min               =  -6.2859585881233E-01
(PID.TID 0000.0001) %MON forcing_fv_mean              =  -4.4395833622666E-03
(PID.TID 0000.0001) %MON forcing_fv_sd                =   1.0225620966792E-01
(PID.TID 0000.0001) %MON forcing_fv_del2              =   1.1981154004264E-04
(PID.TID 0000.0001) %MON trAdv_CFL_u_max              =   1.1827341898813E-02
(PID.TID 0000.0001) %MON trAdv_CFL_v_max              =   2.0109461686012E-02
(PID.TID 0000.0001) %MON trAdv_CFL_w_max              =   2.2471183847366E-02
(PID.TID 0000.0001) %MON advcfl_uvel_max              =   1.1911163317368E-02
(PID.TID 0000.0001) %MON advcfl_vvel_max              =   2.0738462414887E-02
(PID.TID 0000.0001) %MON advcfl_wvel_max              =   2.2369894272384E-02
(PID.TID 0000.0001) %MON advcfl_W_hf_max              =   2.2370312328762E-02
(PID.TID 0000.0001) %MON pe_b_mean                    =   5.4399609217367E-04
(PID.TID 0000.0001) %MON ke_max                       =   6.7723870892884E-01
(PID.TID 0000.0001) %MON ke_mean                      =   3.9753089138651E-04
(PID.TID 0000.0001) %MON ke_vol                       =   1.3349975543022E+18
(PID.TID 0000.0001) %MON vort_r_min                   =  -2.1469526257527E-05
(PID.TID 0000.0001) %MON vort_r_max                   =   3.2794342273125E-05
(PID.TID 0000.0001) %MON vort_a_mean                  =  -1.9727864647440E-05
(PID.TID 0000.0001) %MON vort_a_sd                    =   7.4542932033157E-05
(PID.TID 0000.0001) %MON vort_p_mean                  =  -2.1760537668321E-05
(PID.TID 0000.0001) %MON vort_p_sd                    =   9.7246807979284E-05
(PID.TID 0000.0001) %MON surfExpan_theta_mean         =  -2.6750411248970E-07
(PID.TID 0000.0001) %MON surfExpan_salt_mean          =   1.0603259537105E-08
(PID.TID 0000.0001) // =======================================================
(PID.TID 0000.0001) // End MONITOR dynamic field statistics
(PID.TID 0000.0001) // =======================================================
(PID.TID 0000.0001) // =======================================================
(PID.TID 0000.0001) // Begin MONITOR SEAICE statistics
(PID.TID 0000.0001) // =======================================================
(PID.TID 0000.0001) %MON seaice_tsnumber              =                   328
(PID.TID 0000.0001) %MON seaice_time_sec              =   2.9520000000000E+05
(PID.TID 0000.0001) %MON seaice_uice_max              =   4.0000000000000E-01
(PID.TID 0000.0001) %MON seaice_uice_min              =  -4.0000000000000E-01
(PID.TID 0000.0001) %MON seaice_uice_mean             =  -8.3054598624025E-03
(PID.TID 0000.0001) %MON seaice_uice_sd               =   1.9802383574176E-01
(PID.TID 0000.0001) %MON seaice_uice_del2             =   2.2931571122150E-04
(PID.TID 0000.0001) %MON seaice_vice_max              =   4.0000000000000E-01
(PID.TID 0000.0001) %MON seaice_vice_min              =  -4.0000000000000E-01
(PID.TID 0000.0001) %MON seaice_vice_mean             =  -2.1960776359499E-02
(PID.TID 0000.0001) %MON seaice_vice_sd               =   2.1302038025672E-01
(PID.TID 0000.0001) %MON seaice_vice_del2             =   2.3932563818061E-04
(PID.TID 0000.0001) %MON seaice_area_max              =   1.0000000000000E+00
(PID.TID 0000.0001) %MON seaice_area_min              =   0.0000000000000E+00
(PID.TID 0000.0001) %MON seaice_area_mean             =   6.7936350071174E-02
(PID.TID 0000.0001) %MON seaice_area_sd               =   2.3355585283242E-01
(PID.TID 0000.0001) %MON seaice_area_del2             =   4.2735285407806E-04
(PID.TID 0000.0001) %MON seaice_heff_max              =   2.5140142748831E+01
(PID.TID 0000.0001) %MON seaice_heff_min              =   0.0000000000000E+00
(PID.TID 0000.0001) %MON seaice_heff_mean             =   2.1483452730670E-01
(PID.TID 0000.0001) %MON seaice_heff_sd               =   1.0689390398227E+00
(PID.TID 0000.0001) %MON seaice_heff_del2             =   3.8844199789497E-03
(PID.TID 0000.0001) %MON seaice_hsnow_max             =   8.3034416794544E+00
(PID.TID 0000.0001) %MON seaice_hsnow_min             =   0.0000000000000E+00
(PID.TID 0000.0001) %MON seaice_hsnow_mean            =   2.4338487604653E-02
(PID.TID 0000.0001) %MON seaice_hsnow_sd              =   1.5703326558891E-01
(PID.TID 0000.0001) %MON seaice_hsnow_del2            =   1.2477416189766E-03
(PID.TID 0000.0001) // =======================================================
(PID.TID 0000.0001) // End MONITOR SEAICE statistics
(PID.TID 0000.0001) // =======================================================
 Computing Diagnostic #     86  oceQnet      Counter:       4   Parms: SM      U1      
 Computing Diagnostic #     87  oceQsw       Counter:       4   Parms: SM      U1      
 Computing Diagnostic #     84  oceFWflx     Counter:       4   Parms: SM      U1      
 Computing Diagnostic #     85  oceSflux     Counter:       4   Parms: SM      U1      
 Computing Diagnostic #     80  oceTAUX      Counter:       4   Parms: UU      U1      
           Vector  Mate for  oceTAUX      Diagnostic #     81  oceTAUY  exists 
 Computing Diagnostic #     81  oceTAUY      Counter:       4   Parms: VV      U1      
           Vector  Mate for  oceTAUY      Diagnostic #     80  oceTAUX  exists 
 Computing Diagnostic #     26  THETA        Counter:       4   Parms: SMR     MR      
 Computing Diagnostic #     27  SALT         Counter:       4   Parms: SMR     MR      
 Computing Diagnostic #     30  UVEL         Counter:       4   Parms: UUR     MR      
           Vector  Mate for  UVEL         Diagnostic #     31  VVEL     exists 
 Computing Diagnostic #     31  VVEL         Counter:       4   Parms: VVR     MR      
           Vector  Mate for  VVEL         Diagnostic #     30  UVEL     exists 
 Computing Diagnostic #    214  SIarea       Counter:       4   Parms: SM      M1      
 Computing Diagnostic #    217  SIheff       Counter:       4   Parms: SM      M1      
 Computing Diagnostic #    219  SIhsnow      Counter:       4   Parms: SM      M1      
 Computing Diagnostic #     83  sIceLoad     Counter:       4   Parms: SM      U1      
 Computing Diagnostic #    223  SIuice       Counter:       4   Parms: UU      M1      
           Vector  Mate for  SIuice       Diagnostic #    224  SIvice   exists 
 Computing Diagnostic #    224  SIvice       Counter:       4   Parms: VV      M1      
           Vector  Mate for  SIvice       Diagnostic #    223  SIuice   exists 
 Computing Diagnostic #    225  SItaux       Counter:       4   Parms: UU      U1      
           Vector  Mate for  SItaux       Diagnostic #    226  SItauy   exists 
 Computing Diagnostic #    226  SItauy       Counter:       4   Parms: VV      U1      
           Vector  Mate for  SItauy       Diagnostic #    225  SItaux   exists 
 Computing Diagnostic #    285  SIareaN      Counter:       4   Parms: SM      MX      
 Computing Diagnostic #    284  SIheffN      Counter:       4   Parms: SM      MX      
 Computing Diagnostic #    286  SIhsnowN     Counter:       4   Parms: SM      MX      
 Compute Stats, Diag. #    214  SIarea    vol(   0 ): 3.580E+14  Parms: SM      M1      
 Compute Stats, Diag. #    217  SIheff    vol(   0 ): 3.580E+14  Parms: SM      M1      
 Compute Stats, Diag. #    219  SIhsnow   vol(   0 ): 3.580E+14  Parms: SM      M1      
 Compute Stats, Diag. #     83  sIceLoad  vol(   0 ): 3.580E+14  Parms: SM      U1      
 Compute Stats, Diag. #    223  SIuice    vol(   0 ): 3.513E+14  Parms: UU      M1      
 Compute Stats, Diag. #    224  SIvice    vol(   0 ): 3.508E+14  Parms: VV      M1      
 Compute Stats, Diag. #    225  SItaux    vol(   0 ): 3.513E+14  Parms: UU      U1      
 Compute Stats, Diag. #    226  SItauy    vol(   0 ): 3.508E+14  Parms: VV      U1      
 cg2d: Sum(rhs),rhsMax =   2.82948200743672E+01  2.91093334308353E-01
 Compute Stats, Diag. #    214  SIarea    vol(   0 ): 3.580E+14  Parms: SM      M1      
 Compute Stats, Diag. #    217  SIheff    vol(   0 ): 3.580E+14  Parms: SM      M1      
 Compute Stats, Diag. #    219  SIhsnow   vol(   0 ): 3.580E+14  Parms: SM      M1      
 Compute Stats, Diag. #     83  sIceLoad  vol(   0 ): 3.580E+14  Parms: SM      U1      
 Compute Stats, Diag. #    223  SIuice    vol(   0 ): 3.513E+14  Parms: UU      M1      
 Compute Stats, Diag. #    224  SIvice    vol(   0 ): 3.508E+14  Parms: VV      M1      
 Compute Stats, Diag. #    225  SItaux    vol(   0 ): 3.513E+14  Parms: UU      U1      
 Compute Stats, Diag. #    226  SItauy    vol(   0 ): 3.508E+14  Parms: VV      U1      
 cg2d: Sum(rhs),rhsMax =   2.81963454779377E+01  2.91012622039489E-01
 Compute Stats, Diag. #    214  SIarea    vol(   0 ): 3.580E+14  Parms: SM      M1      
 Compute Stats, Diag. #    217  SIheff    vol(   0 ): 3.580E+14  Parms: SM      M1      
 Compute Stats, Diag. #    219  SIhsnow   vol(   0 ): 3.580E+14  Parms: SM      M1      
 Compute Stats, Diag. #     83  sIceLoad  vol(   0 ): 3.580E+14  Parms: SM      U1      
 Compute Stats, Diag. #    223  SIuice    vol(   0 ): 3.513E+14  Parms: UU      M1      
 Compute Stats, Diag. #    224  SIvice    vol(   0 ): 3.508E+14  Parms: VV      M1      
 Compute Stats, Diag. #    225  SItaux    vol(   0 ): 3.513E+14  Parms: UU      U1      
 Compute Stats, Diag. #    226  SItauy    vol(   0 ): 3.508E+14  Parms: VV      U1      
 cg2d: Sum(rhs),rhsMax =   2.80923850456976E+01  2.90919293801496E-01
 Compute Stats, Diag. #    214  SIarea    vol(   0 ): 3.580E+14  Parms: SM      M1      
 Compute Stats, Diag. #    217  SIheff    vol(   0 ): 3.580E+14  Parms: SM      M1      
 Compute Stats, Diag. #    219  SIhsnow   vol(   0 ): 3.580E+14  Parms: SM      M1      
 Compute Stats, Diag. #     83  sIceLoad  vol(   0 ): 3.580E+14  Parms: SM      U1      
 Compute Stats, Diag. #    223  SIuice    vol(   0 ): 3.513E+14  Parms: UU      M1      
 Compute Stats, Diag. #    224  SIvice    vol(   0 ): 3.508E+14  Parms: VV      M1      
 Compute Stats, Diag. #    225  SItaux    vol(   0 ): 3.513E+14  Parms: UU      U1      
 Compute Stats, Diag. #    226  SItauy    vol(   0 ): 3.508E+14  Parms: VV      U1      
 cg2d: Sum(rhs),rhsMax =   2.79930048709748E+01  2.90813517209180E-01
 Computing Diagnostic #     86  oceQnet      Counter:       4   Parms: SM      U1      
 Computing Diagnostic #     87  oceQsw       Counter:       4   Parms: SM      U1      
 Computing Diagnostic #     84  oceFWflx     Counter:       4   Parms: SM      U1      
 Computing Diagnostic #     85  oceSflux     Counter:       4   Parms: SM      U1      
 Computing Diagnostic #     80  oceTAUX      Counter:       4   Parms: UU      U1      
           Vector  Mate for  oceTAUX      Diagnostic #     81  oceTAUY  exists 
 Computing Diagnostic #     81  oceTAUY      Counter:       4   Parms: VV      U1      
           Vector  Mate for  oceTAUY      Diagnostic #     80  oceTAUX  exists 
 Computing Diagnostic #     26  THETA        Counter:       4   Parms: SMR     MR      
 Computing Diagnostic #     27  SALT         Counter:       4   Parms: SMR     MR      
 Computing Diagnostic #     30  UVEL         Counter:       4   Parms: UUR     MR      
           Vector  Mate for  UVEL         Diagnostic #     31  VVEL     exists 
 Computing Diagnostic #     31  VVEL         Counter:       4   Parms: VVR     MR      
           Vector  Mate for  VVEL         Diagnostic #     30  UVEL     exists 
 Computing Diagnostic #    214  SIarea       Counter:       4   Parms: SM      M1      
 Computing Diagnostic #    217  SIheff       Counter:       4   Parms: SM      M1      
 Computing Diagnostic #    219  SIhsnow      Counter:       4   Parms: SM      M1      
 Computing Diagnostic #     83  sIceLoad     Counter:       4   Parms: SM      U1      
 Computing Diagnostic #    223  SIuice       Counter:       4   Parms: UU      M1      
           Vector  Mate for  SIuice       Diagnostic #    224  SIvice   exists 
 Computing Diagnostic #    224  SIvice       Counter:       4   Parms: VV      M1      
           Vector  Mate for  SIvice       Diagnostic #    223  SIuice   exists 
 Computing Diagnostic #    225  SItaux       Counter:       4   Parms: UU      U1      
           Vector  Mate for  SItaux       Diagnostic #    226  SItauy   exists 
 Computing Diagnostic #    226  SItauy       Counter:       4   Parms: VV      U1      
           Vector  Mate for  SItauy       Diagnostic #    225  SItaux   exists 
 Computing Diagnostic #    285  SIareaN      Counter:       4   Parms: SM      MX      
 Computing Diagnostic #    284  SIheffN      Counter:       4   Parms: SM      MX      
 Computing Diagnostic #    286  SIhsnowN     Counter:       4   Parms: SM      MX      
 Compute Stats, Diag. #    214  SIarea    vol(   0 ): 3.580E+14  Parms: SM      M1      
 Compute Stats, Diag. #    217  SIheff    vol(   0 ): 3.580E+14  Parms: SM      M1      
 Compute Stats, Diag. #    219  SIhsnow   vol(   0 ): 3.580E+14  Parms: SM      M1      
 Compute Stats, Diag. #     83  sIceLoad  vol(   0 ): 3.580E+14  Parms: SM      U1      
 Compute Stats, Diag. #    223  SIuice    vol(   0 ): 3.513E+14  Parms: UU      M1      
 Compute Stats, Diag. #    224  SIvice    vol(   0 ): 3.508E+14  Parms: VV      M1      
 Compute Stats, Diag. #    225  SItaux    vol(   0 ): 3.513E+14  Parms: UU      U1      
 Compute Stats, Diag. #    226  SItauy    vol(   0 ): 3.508E+14  Parms: VV      U1      
 cg2d: Sum(rhs),rhsMax =   2.78995231335805E+01  2.90695399718577E-01
 Compute Stats, Diag. #    214  SIarea    vol(   0 ): 3.580E+14  Parms: SM      M1      
 Compute Stats, Diag. #    217  SIheff    vol(   0 ): 3.580E+14  Parms: SM      M1      
 Compute Stats, Diag. #    219  SIhsnow   vol(   0 ): 3.580E+14  Parms: SM      M1      
 Compute Stats, Diag. #     83  sIceLoad  vol(   0 ): 3.580E+14  Parms: SM      U1      
 Compute Stats, Diag. #    223  SIuice    vol(   0 ): 3.513E+14  Parms: UU      M1      
 Compute Stats, Diag. #    224  SIvice    vol(   0 ): 3.508E+14  Parms: VV      M1      
 Compute Stats, Diag. #    225  SItaux    vol(   0 ): 3.513E+14  Parms: UU      U1      
 Compute Stats, Diag. #    226  SItauy    vol(   0 ): 3.508E+14  Parms: VV      U1      
 cg2d: Sum(rhs),rhsMax =   2.78037205900243E+01  2.90565167490444E-01
 Compute Stats, Diag. #    214  SIarea    vol(   0 ): 3.580E+14  Parms: SM      M1      
 Compute Stats, Diag. #    217  SIheff    vol(   0 ): 3.580E+14  Parms: SM      M1      
 Compute Stats, Diag. #    219  SIhsnow   vol(   0 ): 3.580E+14  Parms: SM      M1      
 Compute Stats, Diag. #     83  sIceLoad  vol(   0 ): 3.580E+14  Parms: SM      U1      
 Compute Stats, Diag. #    223  SIuice    vol(   0 ): 3.513E+14  Parms: UU      M1      
 Compute Stats, Diag. #    224  SIvice    vol(   0 ): 3.508E+14  Parms: VV      M1      
 Compute Stats, Diag. #    225  SItaux    vol(   0 ): 3.513E+14  Parms: UU      U1      
 Compute Stats, Diag. #    226  SItauy    vol(   0 ): 3.508E+14  Parms: VV      U1      
 cg2d: Sum(rhs),rhsMax =   2.77043825543374E+01  2.90422515425511E-01
 Compute Stats, Diag. #    214  SIarea    vol(   0 ): 3.580E+14  Parms: SM      M1      
 Compute Stats, Diag. #    217  SIheff    vol(   0 ): 3.580E+14  Parms: SM      M1      
 Compute Stats, Diag. #    219  SIhsnow   vol(   0 ): 3.580E+14  Parms: SM      M1      
 Compute Stats, Diag. #     83  sIceLoad  vol(   0 ): 3.580E+14  Parms: SM      U1      
 Compute Stats, Diag. #    223  SIuice    vol(   0 ): 3.513E+14  Parms: UU      M1      
 Compute Stats, Diag. #    224  SIvice    vol(   0 ): 3.508E+14  Parms: VV      M1      
 Compute Stats, Diag. #    225  SItaux    vol(   0 ): 3.513E+14  Parms: UU      U1      
 Compute Stats, Diag. #    226  SItauy    vol(   0 ): 3.508E+14  Parms: VV      U1      
 cg2d: Sum(rhs),rhsMax =   2.76049109655923E+01  2.90268918092221E-01
(PID.TID 0000.0001)      cg2d_init_res =   8.84956562551889E-02
(PID.TID 0000.0001)      cg2d_iters(min,last) =      -1      26
(PID.TID 0000.0001)      cg2d_last_res =   2.59921441707758E-05
(PID.TID 0000.0001) // =======================================================
(PID.TID 0000.0001) // Begin MONITOR dynamic field statistics
(PID.TID 0000.0001) // =======================================================
(PID.TID 0000.0001) %MON time_tsnumber                =                   336
(PID.TID 0000.0001) %MON time_secondsf                =   3.0240000000000E+05
(PID.TID 0000.0001) %MON dynstat_eta_max              =   1.0457798408440E+00
(PID.TID 0000.0001) %MON dynstat_eta_min              =  -1.8927758414520E+00
(PID.TID 0000.0001) %MON dynstat_eta_mean             =  -8.7323149807750E-04
(PID.TID 0000.0001) %MON dynstat_eta_sd               =   6.4185212972702E-01
(PID.TID 0000.0001) %MON dynstat_eta_del2             =   6.0870158487190E-05
(PID.TID 0000.0001) %MON dynstat_uvel_max             =   9.2671303891994E-01
(PID.TID 0000.0001) %MON dynstat_uvel_min             =  -6.9053398168238E-01
(PID.TID 0000.0001) %MON dynstat_uvel_mean            =   1.0051017573709E-03
(PID.TID 0000.0001) %MON dynstat_uvel_sd              =   1.9443471701327E-02
(PID.TID 0000.0001) %MON dynstat_uvel_del2            =   8.0127164036285E-06
(PID.TID 0000.0001) %MON dynstat_vvel_max             =   1.1439766556808E+00
(PID.TID 0000.0001) %MON dynstat_vvel_min             =  -8.5855417824777E-01
(PID.TID 0000.0001) %MON dynstat_vvel_mean            =   9.7327662128943E-04
(PID.TID 0000.0001) %MON dynstat_vvel_sd              =   2.0979120108717E-02
(PID.TID 0000.0001) %MON dynstat_vvel_del2            =   8.3815353026452E-06
(PID.TID 0000.0001) %MON dynstat_wvel_max             =   4.0657119634498E-04
(PID.TID 0000.0001) %MON dynstat_wvel_min             =  -7.7896995031116E-04
(PID.TID 0000.0001) %MON dynstat_wvel_mean            =   2.3683477612729E-09
(PID.TID 0000.0001) %MON dynstat_wvel_sd              =   2.0503996756274E-05
(PID.TID 0000.0001) %MON dynstat_wvel_del2            =   1.6662374163522E-08
(PID.TID 0000.0001) %MON dynstat_theta_max            =   3.2376095836008E+01
(PID.TID 0000.0001) %MON dynstat_theta_min            =  -2.0632385811559E+00
(PID.TID 0000.0001) %MON dynstat_theta_mean           =   3.5904107952166E+00
(PID.TID 0000.0001) %MON dynstat_theta_sd             =   4.4362397581224E+00
(PID.TID 0000.0001) %MON dynstat_theta_del2           =   9.6895763565463E-05
(PID.TID 0000.0001) %MON dynstat_salt_max             =   4.0711548454791E+01
(PID.TID 0000.0001) %MON dynstat_salt_min             =   1.2083125453426E+01
(PID.TID 0000.0001) %MON dynstat_salt_mean            =   3.4725579297844E+01
(PID.TID 0000.0001) %MON dynstat_salt_sd              =   3.7701341450156E-01
(PID.TID 0000.0001) %MON dynstat_salt_del2            =   3.4290897954543E-05
(PID.TID 0000.0001) %MON dynstat_sst_max              =   3.2376095836008E+01
(PID.TID 0000.0001) %MON dynstat_sst_min              =  -1.8063716121855E+00
(PID.TID 0000.0001) %MON dynstat_sst_mean             =   1.8480722751241E+01
(PID.TID 0000.0001) %MON dynstat_sst_sd               =   1.0176469939073E+01
(PID.TID 0000.0001) %MON dynstat_sst_del2             =   8.1850482419368E-04
(PID.TID 0000.0001) %MON dynstat_sss_max              =   3.9127660774330E+01
(PID.TID 0000.0001) %MON dynstat_sss_min              =   1.2083125453426E+01
(PID.TID 0000.0001) %MON dynstat_sss_mean             =   3.4698444678248E+01
(PID.TID 0000.0001) %MON dynstat_sss_sd               =   1.1516076100090E+00
(PID.TID 0000.0001) %MON dynstat_sss_del2             =   1.0364017857702E-03
(PID.TID 0000.0001) %MON forcing_qnet_max             =   6.8471144478882E+02
(PID.TID 0000.0001) %MON forcing_qnet_min             =  -7.3492388916016E+02
(PID.TID 0000.0001) %MON forcing_qnet_mean            =   3.8260917136330E+01
(PID.TID 0000.0001) %MON forcing_qnet_sd              =   1.6964921229900E+02
(PID.TID 0000.0001) %MON forcing_qnet_del2            =   3.1650461956045E-01
(PID.TID 0000.0001) %MON forcing_qsw_max              =   0.0000000000000E+00
(PID.TID 0000.0001) %MON forcing_qsw_min              =  -1.1118395013028E+02
(PID.TID 0000.0001) %MON forcing_qsw_mean             =  -1.3690724235242E+01
(PID.TID 0000.0001) %MON forcing_qsw_sd               =   2.4956383443186E+01
(PID.TID 0000.0001) %MON forcing_qsw_del2             =   1.8260896190992E-02
(PID.TID 0000.0001) %MON forcing_empmr_max            =   1.9894749857485E-03
(PID.TID 0000.0001) %MON forcing_empmr_min            =  -1.4976185560226E-01
(PID.TID 0000.0001) %MON forcing_empmr_mean           =  -3.5976172893907E-06
(PID.TID 0000.0001) %MON forcing_empmr_sd             =   4.4139241129635E-04
(PID.TID 0000.0001) %MON forcing_empmr_del2           =   7.6442980402426E-06
(PID.TID 0000.0001) %MON forcing_fu_max               =   8.4909719228744E-01
(PID.TID 0000.0001) %MON forcing_fu_min               =  -4.6081072092056E-01
(PID.TID 0000.0001) %MON forcing_fu_mean              =   6.2603727850772E-03
(PID.TID 0000.0001) %MON forcing_fu_sd                =   8.8445446135872E-02
(PID.TID 0000.0001) %MON forcing_fu_del2              =   1.1372905928172E-04
(PID.TID 0000.0001) %MON forcing_fv_max               =   8.5952854156494E-01
(PID.TID 0000.0001) %MON forcing_fv_min               =  -6.4930451168701E-01
(PID.TID 0000.0001) %MON forcing_fv_mean              =  -4.7924482120490E-03
(PID.TID 0000.0001) %MON forcing_fv_sd                =   1.0130174023041E-01
(PID.TID 0000.0001) %MON forcing_fv_del2              =   1.1785235383731E-04
(PID.TID 0000.0001) %MON trAdv_CFL_u_max              =   1.1346437157457E-02
(PID.TID 0000.0001) %MON trAdv_CFL_v_max              =   1.9719430236950E-02
(PID.TID 0000.0001) %MON trAdv_CFL_w_max              =   2.2237364819121E-02
(PID.TID 0000.0001) %MON advcfl_uvel_max              =   1.1424826348787E-02
(PID.TID 0000.0001) %MON advcfl_vvel_max              =   2.0306619987438E-02
(PID.TID 0000.0001) %MON advcfl_wvel_max              =   2.6197409143253E-02
(PID.TID 0000.0001) %MON advcfl_W_hf_max              =   2.1967801466288E-02
(PID.TID 0000.0001) %MON pe_b_mean                    =   5.4191248557125E-04
(PID.TID 0000.0001) %MON ke_max                       =   6.4481492267431E-01
(PID.TID 0000.0001) %MON ke_mean                      =   3.9546378250547E-04
(PID.TID 0000.0001) %MON ke_vol                       =   1.3349975631838E+18
(PID.TID 0000.0001) %MON vort_r_min                   =  -2.0952663490350E-05
(PID.TID 0000.0001) %MON vort_r_max                   =   3.2060680636922E-05
(PID.TID 0000.0001) %MON vort_a_mean                  =  -1.9727864647440E-05
(PID.TID 0000.0001) %MON vort_a_sd                    =   7.4542934004225E-05
(PID.TID 0000.0001) %MON vort_p_mean                  =  -2.1760537518083E-05
(PID.TID 0000.0001) %MON vort_p_sd                    =   9.7246810118645E-05
(PID.TID 0000.0001) %MON surfExpan_theta_mean         =  -5.0189407946466E-07
(PID.TID 0000.0001) %MON surfExpan_salt_mean          =   1.3241828747437E-08
(PID.TID 0000.0001) // =======================================================
(PID.TID 0000.0001) // End MONITOR dynamic field statistics
(PID.TID 0000.0001) // =======================================================
(PID.TID 0000.0001) // =======================================================
(PID.TID 0000.0001) // Begin MONITOR SEAICE statistics
(PID.TID 0000.0001) // =======================================================
(PID.TID 0000.0001) %MON seaice_tsnumber              =                   336
(PID.TID 0000.0001) %MON seaice_time_sec              =   3.0240000000000E+05
(PID.TID 0000.0001) %MON seaice_uice_max              =   4.0000000000000E-01
(PID.TID 0000.0001) %MON seaice_uice_min              =  -4.0000000000000E-01
(PID.TID 0000.0001) %MON seaice_uice_mean             =  -8.3054598624025E-03
(PID.TID 0000.0001) %MON seaice_uice_sd               =   1.9802383574176E-01
(PID.TID 0000.0001) %MON seaice_uice_del2             =   2.2931571122150E-04
(PID.TID 0000.0001) %MON seaice_vice_max              =   4.0000000000000E-01
(PID.TID 0000.0001) %MON seaice_vice_min              =  -4.0000000000000E-01
(PID.TID 0000.0001) %MON seaice_vice_mean             =  -2.1960776359499E-02
(PID.TID 0000.0001) %MON seaice_vice_sd               =   2.1302038025672E-01
(PID.TID 0000.0001) %MON seaice_vice_del2             =   2.3932563818061E-04
(PID.TID 0000.0001) %MON seaice_area_max              =   1.0000000000000E+00
(PID.TID 0000.0001) %MON seaice_area_min              =   0.0000000000000E+00
(PID.TID 0000.0001) %MON seaice_area_mean             =   6.7888715245735E-02
(PID.TID 0000.0001) %MON seaice_area_sd               =   2.3347039168297E-01
(PID.TID 0000.0001) %MON seaice_area_del2             =   4.2644579973229E-04
(PID.TID 0000.0001) %MON seaice_heff_max              =   2.5137326779775E+01
(PID.TID 0000.0001) %MON seaice_heff_min              =   0.0000000000000E+00
(PID.TID 0000.0001) %MON seaice_heff_mean             =   2.1478226416513E-01
(PID.TID 0000.0001) %MON seaice_heff_sd               =   1.0688733223218E+00
(PID.TID 0000.0001) %MON seaice_heff_del2             =   3.8834595598613E-03
(PID.TID 0000.0001) %MON seaice_hsnow_max             =   8.3025222741708E+00
(PID.TID 0000.0001) %MON seaice_hsnow_min             =   0.0000000000000E+00
(PID.TID 0000.0001) %MON seaice_hsnow_mean            =   2.4338009912604E-02
(PID.TID 0000.0001) %MON seaice_hsnow_sd              =   1.5701406801869E-01
(PID.TID 0000.0001) %MON seaice_hsnow_del2            =   1.2475054941373E-03
(PID.TID 0000.0001) // =======================================================
(PID.TID 0000.0001) // End MONITOR SEAICE statistics
(PID.TID 0000.0001) // =======================================================
 Computing Diagnostic #     86  oceQnet      Counter:       4   Parms: SM      U1      
 Computing Diagnostic #     87  oceQsw       Counter:       4   Parms: SM      U1      
 Computing Diagnostic #     84  oceFWflx     Counter:       4   Parms: SM      U1      
 Computing Diagnostic #     85  oceSflux     Counter:       4   Parms: SM      U1      
 Computing Diagnostic #     80  oceTAUX      Counter:       4   Parms: UU      U1      
           Vector  Mate for  oceTAUX      Diagnostic #     81  oceTAUY  exists 
 Computing Diagnostic #     81  oceTAUY      Counter:       4   Parms: VV      U1      
           Vector  Mate for  oceTAUY      Diagnostic #     80  oceTAUX  exists 
 Computing Diagnostic #     26  THETA        Counter:       4   Parms: SMR     MR      
 Computing Diagnostic #     27  SALT         Counter:       4   Parms: SMR     MR      
 Computing Diagnostic #     30  UVEL         Counter:       4   Parms: UUR     MR      
           Vector  Mate for  UVEL         Diagnostic #     31  VVEL     exists 
 Computing Diagnostic #     31  VVEL         Counter:       4   Parms: VVR     MR      
           Vector  Mate for  VVEL         Diagnostic #     30  UVEL     exists 
 Computing Diagnostic #    214  SIarea       Counter:       4   Parms: SM      M1      
 Computing Diagnostic #    217  SIheff       Counter:       4   Parms: SM      M1      
 Computing Diagnostic #    219  SIhsnow      Counter:       4   Parms: SM      M1      
 Computing Diagnostic #     83  sIceLoad     Counter:       4   Parms: SM      U1      
 Computing Diagnostic #    223  SIuice       Counter:       4   Parms: UU      M1      
           Vector  Mate for  SIuice       Diagnostic #    224  SIvice   exists 
 Computing Diagnostic #    224  SIvice       Counter:       4   Parms: VV      M1      
           Vector  Mate for  SIvice       Diagnostic #    223  SIuice   exists 
 Computing Diagnostic #    225  SItaux       Counter:       4   Parms: UU      U1      
           Vector  Mate for  SItaux       Diagnostic #    226  SItauy   exists 
 Computing Diagnostic #    226  SItauy       Counter:       4   Parms: VV      U1      
           Vector  Mate for  SItauy       Diagnostic #    225  SItaux   exists 
 Computing Diagnostic #    285  SIareaN      Counter:       4   Parms: SM      MX      
 Computing Diagnostic #    284  SIheffN      Counter:       4   Parms: SM      MX      
 Computing Diagnostic #    286  SIhsnowN     Counter:       4   Parms: SM      MX      
 Compute Stats, Diag. #    214  SIarea    vol(   0 ): 3.580E+14  Parms: SM      M1      
 Compute Stats, Diag. #    217  SIheff    vol(   0 ): 3.580E+14  Parms: SM      M1      
 Compute Stats, Diag. #    219  SIhsnow   vol(   0 ): 3.580E+14  Parms: SM      M1      
 Compute Stats, Diag. #     83  sIceLoad  vol(   0 ): 3.580E+14  Parms: SM      U1      
 Compute Stats, Diag. #    223  SIuice    vol(   0 ): 3.513E+14  Parms: UU      M1      
 Compute Stats, Diag. #    224  SIvice    vol(   0 ): 3.508E+14  Parms: VV      M1      
 Compute Stats, Diag. #    225  SItaux    vol(   0 ): 3.513E+14  Parms: UU      U1      
 Compute Stats, Diag. #    226  SItauy    vol(   0 ): 3.508E+14  Parms: VV      U1      
 cg2d: Sum(rhs),rhsMax =   2.75080565829188E+01  2.90104417104180E-01
 Compute Stats, Diag. #    214  SIarea    vol(   0 ): 3.580E+14  Parms: SM      M1      
 Compute Stats, Diag. #    217  SIheff    vol(   0 ): 3.580E+14  Parms: SM      M1      
 Compute Stats, Diag. #    219  SIhsnow   vol(   0 ): 3.580E+14  Parms: SM      M1      
 Compute Stats, Diag. #     83  sIceLoad  vol(   0 ): 3.580E+14  Parms: SM      U1      
 Compute Stats, Diag. #    223  SIuice    vol(   0 ): 3.513E+14  Parms: UU      M1      
 Compute Stats, Diag. #    224  SIvice    vol(   0 ): 3.508E+14  Parms: VV      M1      
 Compute Stats, Diag. #    225  SItaux    vol(   0 ): 3.513E+14  Parms: UU      U1      
 Compute Stats, Diag. #    226  SItauy    vol(   0 ): 3.508E+14  Parms: VV      U1      
 cg2d: Sum(rhs),rhsMax =   2.74138656737853E+01  2.89929383684445E-01
 Compute Stats, Diag. #    214  SIarea    vol(   0 ): 3.580E+14  Parms: SM      M1      
 Compute Stats, Diag. #    217  SIheff    vol(   0 ): 3.580E+14  Parms: SM      M1      
 Compute Stats, Diag. #    219  SIhsnow   vol(   0 ): 3.580E+14  Parms: SM      M1      
 Compute Stats, Diag. #     83  sIceLoad  vol(   0 ): 3.580E+14  Parms: SM      U1      
 Compute Stats, Diag. #    223  SIuice    vol(   0 ): 3.513E+14  Parms: UU      M1      
 Compute Stats, Diag. #    224  SIvice    vol(   0 ): 3.508E+14  Parms: VV      M1      
 Compute Stats, Diag. #    225  SItaux    vol(   0 ): 3.513E+14  Parms: UU      U1      
 Compute Stats, Diag. #    226  SItauy    vol(   0 ): 3.508E+14  Parms: VV      U1      
 cg2d: Sum(rhs),rhsMax =   2.73228541175326E+01  2.89744758050259E-01
 Compute Stats, Diag. #    214  SIarea    vol(   0 ): 3.580E+14  Parms: SM      M1      
 Compute Stats, Diag. #    217  SIheff    vol(   0 ): 3.580E+14  Parms: SM      M1      
 Compute Stats, Diag. #    219  SIhsnow   vol(   0 ): 3.580E+14  Parms: SM      M1      
 Compute Stats, Diag. #     83  sIceLoad  vol(   0 ): 3.580E+14  Parms: SM      U1      
 Compute Stats, Diag. #    223  SIuice    vol(   0 ): 3.513E+14  Parms: UU      M1      
 Compute Stats, Diag. #    224  SIvice    vol(   0 ): 3.508E+14  Parms: VV      M1      
 Compute Stats, Diag. #    225  SItaux    vol(   0 ): 3.513E+14  Parms: UU      U1      
 Compute Stats, Diag. #    226  SItauy    vol(   0 ): 3.508E+14  Parms: VV      U1      
 cg2d: Sum(rhs),rhsMax =   2.72363733541370E+01  2.89552602978130E-01
 Computing Diagnostic #     86  oceQnet      Counter:       4   Parms: SM      U1      
 Computing Diagnostic #     87  oceQsw       Counter:       4   Parms: SM      U1      
 Computing Diagnostic #     84  oceFWflx     Counter:       4   Parms: SM      U1      
 Computing Diagnostic #     85  oceSflux     Counter:       4   Parms: SM      U1      
 Computing Diagnostic #     80  oceTAUX      Counter:       4   Parms: UU      U1      
           Vector  Mate for  oceTAUX      Diagnostic #     81  oceTAUY  exists 
 Computing Diagnostic #     81  oceTAUY      Counter:       4   Parms: VV      U1      
           Vector  Mate for  oceTAUY      Diagnostic #     80  oceTAUX  exists 
 Computing Diagnostic #     26  THETA        Counter:       4   Parms: SMR     MR      
 Computing Diagnostic #     27  SALT         Counter:       4   Parms: SMR     MR      
 Computing Diagnostic #     30  UVEL         Counter:       4   Parms: UUR     MR      
           Vector  Mate for  UVEL         Diagnostic #     31  VVEL     exists 
 Computing Diagnostic #     31  VVEL         Counter:       4   Parms: VVR     MR      
           Vector  Mate for  VVEL         Diagnostic #     30  UVEL     exists 
 Computing Diagnostic #    214  SIarea       Counter:       4   Parms: SM      M1      
 Computing Diagnostic #    217  SIheff       Counter:       4   Parms: SM      M1      
 Computing Diagnostic #    219  SIhsnow      Counter:       4   Parms: SM      M1      
 Computing Diagnostic #     83  sIceLoad     Counter:       4   Parms: SM      U1      
 Computing Diagnostic #    223  SIuice       Counter:       4   Parms: UU      M1      
           Vector  Mate for  SIuice       Diagnostic #    224  SIvice   exists 
 Computing Diagnostic #    224  SIvice       Counter:       4   Parms: VV      M1      
           Vector  Mate for  SIvice       Diagnostic #    223  SIuice   exists 
 Computing Diagnostic #    225  SItaux       Counter:       4   Parms: UU      U1      
           Vector  Mate for  SItaux       Diagnostic #    226  SItauy   exists 
 Computing Diagnostic #    226  SItauy       Counter:       4   Parms: VV      U1      
           Vector  Mate for  SItauy       Diagnostic #    225  SItaux   exists 
 Computing Diagnostic #    285  SIareaN      Counter:       4   Parms: SM      MX      
 Computing Diagnostic #    284  SIheffN      Counter:       4   Parms: SM      MX      
 Computing Diagnostic #    286  SIhsnowN     Counter:       4   Parms: SM      MX      
 Compute Stats, Diag. #    214  SIarea    vol(   0 ): 3.580E+14  Parms: SM      M1      
 Compute Stats, Diag. #    217  SIheff    vol(   0 ): 3.580E+14  Parms: SM      M1      
 Compute Stats, Diag. #    219  SIhsnow   vol(   0 ): 3.580E+14  Parms: SM      M1      
 Compute Stats, Diag. #     83  sIceLoad  vol(   0 ): 3.580E+14  Parms: SM      U1      
 Compute Stats, Diag. #    223  SIuice    vol(   0 ): 3.513E+14  Parms: UU      M1      
 Compute Stats, Diag. #    224  SIvice    vol(   0 ): 3.508E+14  Parms: VV      M1      
 Compute Stats, Diag. #    225  SItaux    vol(   0 ): 3.513E+14  Parms: UU      U1      
 Compute Stats, Diag. #    226  SItauy    vol(   0 ): 3.508E+14  Parms: VV      U1      
 cg2d: Sum(rhs),rhsMax =   2.71532606964657E+01  2.89352693854847E-01
 Compute Stats, Diag. #    214  SIarea    vol(   0 ): 3.580E+14  Parms: SM      M1      
 Compute Stats, Diag. #    217  SIheff    vol(   0 ): 3.580E+14  Parms: SM      M1      
 Compute Stats, Diag. #    219  SIhsnow   vol(   0 ): 3.580E+14  Parms: SM      M1      
 Compute Stats, Diag. #     83  sIceLoad  vol(   0 ): 3.580E+14  Parms: SM      U1      
 Compute Stats, Diag. #    223  SIuice    vol(   0 ): 3.513E+14  Parms: UU      M1      
 Compute Stats, Diag. #    224  SIvice    vol(   0 ): 3.508E+14  Parms: VV      M1      
 Compute Stats, Diag. #    225  SItaux    vol(   0 ): 3.513E+14  Parms: UU      U1      
 Compute Stats, Diag. #    226  SItauy    vol(   0 ): 3.508E+14  Parms: VV      U1      
 cg2d: Sum(rhs),rhsMax =   2.70671704569988E+01  2.89146941353340E-01
 Compute Stats, Diag. #    214  SIarea    vol(   0 ): 3.580E+14  Parms: SM      M1      
 Compute Stats, Diag. #    217  SIheff    vol(   0 ): 3.580E+14  Parms: SM      M1      
 Compute Stats, Diag. #    219  SIhsnow   vol(   0 ): 3.580E+14  Parms: SM      M1      
 Compute Stats, Diag. #     83  sIceLoad  vol(   0 ): 3.580E+14  Parms: SM      U1      
 Compute Stats, Diag. #    223  SIuice    vol(   0 ): 3.513E+14  Parms: UU      M1      
 Compute Stats, Diag. #    224  SIvice    vol(   0 ): 3.508E+14  Parms: VV      M1      
 Compute Stats, Diag. #    225  SItaux    vol(   0 ): 3.513E+14  Parms: UU      U1      
 Compute Stats, Diag. #    226  SItauy    vol(   0 ): 3.508E+14  Parms: VV      U1      
 cg2d: Sum(rhs),rhsMax =   2.69762282884820E+01  2.88936622535889E-01
 Compute Stats, Diag. #    214  SIarea    vol(   0 ): 3.580E+14  Parms: SM      M1      
 Compute Stats, Diag. #    217  SIheff    vol(   0 ): 3.580E+14  Parms: SM      M1      
 Compute Stats, Diag. #    219  SIhsnow   vol(   0 ): 3.580E+14  Parms: SM      M1      
 Compute Stats, Diag. #     83  sIceLoad  vol(   0 ): 3.580E+14  Parms: SM      U1      
 Compute Stats, Diag. #    223  SIuice    vol(   0 ): 3.513E+14  Parms: UU      M1      
 Compute Stats, Diag. #    224  SIvice    vol(   0 ): 3.508E+14  Parms: VV      M1      
 Compute Stats, Diag. #    225  SItaux    vol(   0 ): 3.513E+14  Parms: UU      U1      
 Compute Stats, Diag. #    226  SItauy    vol(   0 ): 3.508E+14  Parms: VV      U1      
 cg2d: Sum(rhs),rhsMax =   2.68849362937745E+01  2.88722865718664E-01
(PID.TID 0000.0001)      cg2d_init_res =   9.30184171720247E-02
(PID.TID 0000.0001)      cg2d_iters(min,last) =      -1      26
(PID.TID 0000.0001)      cg2d_last_res =   2.29110350290089E-05
(PID.TID 0000.0001) // =======================================================
(PID.TID 0000.0001) // Begin MONITOR dynamic field statistics
(PID.TID 0000.0001) // =======================================================
(PID.TID 0000.0001) %MON time_tsnumber                =                   344
(PID.TID 0000.0001) %MON time_secondsf                =   3.0960000000000E+05
(PID.TID 0000.0001) %MON dynstat_eta_max              =   1.0458630102080E+00
(PID.TID 0000.0001) %MON dynstat_eta_min              =  -1.8896979944145E+00
(PID.TID 0000.0001) %MON dynstat_eta_mean             =  -8.5045639976129E-04
(PID.TID 0000.0001) %MON dynstat_eta_sd               =   6.4071063475771E-01
(PID.TID 0000.0001) %MON dynstat_eta_del2             =   6.0288677896194E-05
(PID.TID 0000.0001) %MON dynstat_uvel_max             =   9.2464895815690E-01
(PID.TID 0000.0001) %MON dynstat_uvel_min             =  -6.6440972785198E-01
(PID.TID 0000.0001) %MON dynstat_uvel_mean            =   9.8237868342745E-04
(PID.TID 0000.0001) %MON dynstat_uvel_sd              =   1.9368443789848E-02
(PID.TID 0000.0001) %MON dynstat_uvel_del2            =   7.9664275424069E-06
(PID.TID 0000.0001) %MON dynstat_vvel_max             =   1.1176016358634E+00
(PID.TID 0000.0001) %MON dynstat_vvel_min             =  -8.5576431497674E-01
(PID.TID 0000.0001) %MON dynstat_vvel_mean            =   9.5646588809944E-04
(PID.TID 0000.0001) %MON dynstat_vvel_sd              =   2.0940917483165E-02
(PID.TID 0000.0001) %MON dynstat_vvel_del2            =   8.3257567574986E-06
(PID.TID 0000.0001) %MON dynstat_wvel_max             =   4.0326685546385E-04
(PID.TID 0000.0001) %MON dynstat_wvel_min             =  -7.8340967682289E-04
(PID.TID 0000.0001) %MON dynstat_wvel_mean            =  -1.1729537375408E-09
(PID.TID 0000.0001) %MON dynstat_wvel_sd              =   2.0379071069078E-05
(PID.TID 0000.0001) %MON dynstat_wvel_del2            =   1.6417230880732E-08
(PID.TID 0000.0001) %MON dynstat_theta_max            =   3.2361993206449E+01
(PID.TID 0000.0001) %MON dynstat_theta_min            =  -2.0664285229170E+00
(PID.TID 0000.0001) %MON dynstat_theta_mean           =   3.5903957605587E+00
(PID.TID 0000.0001) %MON dynstat_theta_sd             =   4.4361925704819E+00
(PID.TID 0000.0001) %MON dynstat_theta_del2           =   9.6781200795546E-05
(PID.TID 0000.0001) %MON dynstat_salt_max             =   4.0711548759311E+01
(PID.TID 0000.0001) %MON dynstat_salt_min             =   1.2159500520727E+01
(PID.TID 0000.0001) %MON dynstat_salt_mean            =   3.4725579020015E+01
(PID.TID 0000.0001) %MON dynstat_salt_sd              =   3.7701362428408E-01
(PID.TID 0000.0001) %MON dynstat_salt_del2            =   3.4992844643143E-05
(PID.TID 0000.0001) %MON dynstat_sst_max              =   3.2361993206449E+01
(PID.TID 0000.0001) %MON dynstat_sst_min              =  -1.8060258345388E+00
(PID.TID 0000.0001) %MON dynstat_sst_mean             =   1.8477665348091E+01
(PID.TID 0000.0001) %MON dynstat_sst_sd               =   1.0176548739636E+01
(PID.TID 0000.0001) %MON dynstat_sst_del2             =   8.1713330252832E-04
(PID.TID 0000.0001) %MON dynstat_sss_max              =   3.9126130027573E+01
(PID.TID 0000.0001) %MON dynstat_sss_min              =   1.2159500520727E+01
(PID.TID 0000.0001) %MON dynstat_sss_mean             =   3.4698605115361E+01
(PID.TID 0000.0001) %MON dynstat_sss_sd               =   1.1521334791344E+00
(PID.TID 0000.0001) %MON dynstat_sss_del2             =   1.0707684311832E-03
(PID.TID 0000.0001) %MON forcing_qnet_max             =   6.5602676307541E+02
(PID.TID 0000.0001) %MON forcing_qnet_min             =  -8.1947938831001E+02
(PID.TID 0000.0001) %MON forcing_qnet_mean            =   2.6138428689576E+01
(PID.TID 0000.0001) %MON forcing_qnet_sd              =   1.7340960530337E+02
(PID.TID 0000.0001) %MON forcing_qnet_del2            =   3.2090247986154E-01
(PID.TID 0000.0001) %MON forcing_qsw_max              =   0.0000000000000E+00
(PID.TID 0000.0001) %MON forcing_qsw_min              =  -9.9798249214518E+01
(PID.TID 0000.0001) %MON forcing_qsw_mean             =  -1.4584304061323E+01
(PID.TID 0000.0001) %MON forcing_qsw_sd               =   2.4336003743388E+01
(PID.TID 0000.0001) %MON forcing_qsw_del2             =   1.9503353433149E-02
(PID.TID 0000.0001) %MON forcing_empmr_max            =   8.0620660446584E-04
(PID.TID 0000.0001) %MON forcing_empmr_min            =  -1.4512898027897E-01
(PID.TID 0000.0001) %MON forcing_empmr_mean           =  -3.3017835814278E-06
(PID.TID 0000.0001) %MON forcing_empmr_sd             =   3.9461177359957E-04
(PID.TID 0000.0001) %MON forcing_empmr_del2           =   6.7636978711343E-06
(PID.TID 0000.0001) %MON forcing_fu_max               =   8.4128013253212E-01
(PID.TID 0000.0001) %MON forcing_fu_min               =  -4.5923231542110E-01
(PID.TID 0000.0001) %MON forcing_fu_mean              =   6.0123412082261E-03
(PID.TID 0000.0001) %MON forcing_fu_sd                =   8.9026034971073E-02
(PID.TID 0000.0001) %MON forcing_fu_del2              =   1.1531463570856E-04
(PID.TID 0000.0001) %MON forcing_fv_max               =   8.9567780494690E-01
(PID.TID 0000.0001) %MON forcing_fv_min               =  -7.1831536127520E-01
(PID.TID 0000.0001) %MON forcing_fv_mean              =  -4.1890340067636E-03
(PID.TID 0000.0001) %MON forcing_fv_sd                =   1.0059154169029E-01
(PID.TID 0000.0001) %MON forcing_fv_del2              =   1.1674523580062E-04
(PID.TID 0000.0001) %MON trAdv_CFL_u_max              =   1.0918857092119E-02
(PID.TID 0000.0001) %MON trAdv_CFL_v_max              =   1.9271646310712E-02
(PID.TID 0000.0001) %MON trAdv_CFL_w_max              =   2.2177065541974E-02
(PID.TID 0000.0001) %MON advcfl_uvel_max              =   1.0992602777723E-02
(PID.TID 0000.0001) %MON advcfl_vvel_max              =   1.9838439538184E-02
(PID.TID 0000.0001) %MON advcfl_wvel_max              =   2.5386993634805E-02
(PID.TID 0000.0001) %MON advcfl_W_hf_max              =   2.1486286762511E-02
(PID.TID 0000.0001) %MON pe_b_mean                    =   5.3998663136407E-04
(PID.TID 0000.0001) %MON ke_max                       =   6.1259583930875E-01
(PID.TID 0000.0001) %MON ke_mean                      =   3.9325012589894E-04
(PID.TID 0000.0001) %MON ke_vol                       =   1.3349975714302E+18
(PID.TID 0000.0001) %MON vort_r_min                   =  -2.0376390729592E-05
(PID.TID 0000.0001) %MON vort_r_max                   =   3.1237728886060E-05
(PID.TID 0000.0001) %MON vort_a_mean                  =  -1.9727864647440E-05
(PID.TID 0000.0001) %MON vort_a_sd                    =   7.4542936681564E-05
(PID.TID 0000.0001) %MON vort_p_mean                  =  -2.1760537282951E-05
(PID.TID 0000.0001) %MON vort_p_sd                    =   9.7246864733795E-05
(PID.TID 0000.0001) %MON surfExpan_theta_mean         =  -6.2768615357276E-07
(PID.TID 0000.0001) %MON surfExpan_salt_mean          =   3.3724373627042E-09
(PID.TID 0000.0001) // =======================================================
(PID.TID 0000.0001) // End MONITOR dynamic field statistics
(PID.TID 0000.0001) // =======================================================
(PID.TID 0000.0001) // =======================================================
(PID.TID 0000.0001) // Begin MONITOR SEAICE statistics
(PID.TID 0000.0001) // =======================================================
(PID.TID 0000.0001) %MON seaice_tsnumber              =                   344
(PID.TID 0000.0001) %MON seaice_time_sec              =   3.0960000000000E+05
(PID.TID 0000.0001) %MON seaice_uice_max              =   4.0000000000000E-01
(PID.TID 0000.0001) %MON seaice_uice_min              =  -4.0000000000000E-01
(PID.TID 0000.0001) %MON seaice_uice_mean             =  -8.3054598624025E-03
(PID.TID 0000.0001) %MON seaice_uice_sd               =   1.9802383574176E-01
(PID.TID 0000.0001) %MON seaice_uice_del2             =   2.2931571122150E-04
(PID.TID 0000.0001) %MON seaice_vice_max              =   4.0000000000000E-01
(PID.TID 0000.0001) %MON seaice_vice_min              =  -4.0000000000000E-01
(PID.TID 0000.0001) %MON seaice_vice_mean             =  -2.1960776359499E-02
(PID.TID 0000.0001) %MON seaice_vice_sd               =   2.1302038025672E-01
(PID.TID 0000.0001) %MON seaice_vice_del2             =   2.3932563818061E-04
(PID.TID 0000.0001) %MON seaice_area_max              =   1.0000000000000E+00
(PID.TID 0000.0001) %MON seaice_area_min              =   0.0000000000000E+00
(PID.TID 0000.0001) %MON seaice_area_mean             =   6.7843200963955E-02
(PID.TID 0000.0001) %MON seaice_area_sd               =   2.3338860394113E-01
(PID.TID 0000.0001) %MON seaice_area_del2             =   4.2549048692236E-04
(PID.TID 0000.0001) %MON seaice_heff_max              =   2.5134427393787E+01
(PID.TID 0000.0001) %MON seaice_heff_min              =   0.0000000000000E+00
(PID.TID 0000.0001) %MON seaice_heff_mean             =   2.1473088827327E-01
(PID.TID 0000.0001) %MON seaice_heff_sd               =   1.0688085432270E+00
(PID.TID 0000.0001) %MON seaice_heff_del2             =   3.8824985688658E-03
(PID.TID 0000.0001) %MON seaice_hsnow_max             =   8.3015753452200E+00
(PID.TID 0000.0001) %MON seaice_hsnow_min             =   0.0000000000000E+00
(PID.TID 0000.0001) %MON seaice_hsnow_mean            =   2.4336689366250E-02
(PID.TID 0000.0001) %MON seaice_hsnow_sd              =   1.5699424713926E-01
(PID.TID 0000.0001) %MON seaice_hsnow_del2            =   1.2472782870523E-03
(PID.TID 0000.0001) // =======================================================
(PID.TID 0000.0001) // End MONITOR SEAICE statistics
(PID.TID 0000.0001) // =======================================================
 Computing Diagnostic #     86  oceQnet      Counter:       4   Parms: SM      U1      
 Computing Diagnostic #     87  oceQsw       Counter:       4   Parms: SM      U1      
 Computing Diagnostic #     84  oceFWflx     Counter:       4   Parms: SM      U1      
 Computing Diagnostic #     85  oceSflux     Counter:       4   Parms: SM      U1      
 Computing Diagnostic #     80  oceTAUX      Counter:       4   Parms: UU      U1      
           Vector  Mate for  oceTAUX      Diagnostic #     81  oceTAUY  exists 
 Computing Diagnostic #     81  oceTAUY      Counter:       4   Parms: VV      U1      
           Vector  Mate for  oceTAUY      Diagnostic #     80  oceTAUX  exists 
 Computing Diagnostic #     26  THETA        Counter:       4   Parms: SMR     MR      
 Computing Diagnostic #     27  SALT         Counter:       4   Parms: SMR     MR      
 Computing Diagnostic #     30  UVEL         Counter:       4   Parms: UUR     MR      
           Vector  Mate for  UVEL         Diagnostic #     31  VVEL     exists 
 Computing Diagnostic #     31  VVEL         Counter:       4   Parms: VVR     MR      
           Vector  Mate for  VVEL         Diagnostic #     30  UVEL     exists 
 Computing Diagnostic #    214  SIarea       Counter:       4   Parms: SM      M1      
 Computing Diagnostic #    217  SIheff       Counter:       4   Parms: SM      M1      
 Computing Diagnostic #    219  SIhsnow      Counter:       4   Parms: SM      M1      
 Computing Diagnostic #     83  sIceLoad     Counter:       4   Parms: SM      U1      
 Computing Diagnostic #    223  SIuice       Counter:       4   Parms: UU      M1      
           Vector  Mate for  SIuice       Diagnostic #    224  SIvice   exists 
 Computing Diagnostic #    224  SIvice       Counter:       4   Parms: VV      M1      
           Vector  Mate for  SIvice       Diagnostic #    223  SIuice   exists 
 Computing Diagnostic #    225  SItaux       Counter:       4   Parms: UU      U1      
           Vector  Mate for  SItaux       Diagnostic #    226  SItauy   exists 
 Computing Diagnostic #    226  SItauy       Counter:       4   Parms: VV      U1      
           Vector  Mate for  SItauy       Diagnostic #    225  SItaux   exists 
 Computing Diagnostic #    285  SIareaN      Counter:       4   Parms: SM      MX      
 Computing Diagnostic #    284  SIheffN      Counter:       4   Parms: SM      MX      
 Computing Diagnostic #    286  SIhsnowN     Counter:       4   Parms: SM      MX      
 Compute Stats, Diag. #    214  SIarea    vol(   0 ): 3.580E+14  Parms: SM      M1      
 Compute Stats, Diag. #    217  SIheff    vol(   0 ): 3.580E+14  Parms: SM      M1      
 Compute Stats, Diag. #    219  SIhsnow   vol(   0 ): 3.580E+14  Parms: SM      M1      
 Compute Stats, Diag. #     83  sIceLoad  vol(   0 ): 3.580E+14  Parms: SM      U1      
 Compute Stats, Diag. #    223  SIuice    vol(   0 ): 3.513E+14  Parms: UU      M1      
 Compute Stats, Diag. #    224  SIvice    vol(   0 ): 3.508E+14  Parms: VV      M1      
 Compute Stats, Diag. #    225  SItaux    vol(   0 ): 3.513E+14  Parms: UU      U1      
 Compute Stats, Diag. #    226  SItauy    vol(   0 ): 3.508E+14  Parms: VV      U1      
 cg2d: Sum(rhs),rhsMax =   2.67925104004947E+01  2.88507094983827E-01
 Compute Stats, Diag. #    214  SIarea    vol(   0 ): 3.580E+14  Parms: SM      M1      
 Compute Stats, Diag. #    217  SIheff    vol(   0 ): 3.580E+14  Parms: SM      M1      
 Compute Stats, Diag. #    219  SIhsnow   vol(   0 ): 3.580E+14  Parms: SM      M1      
 Compute Stats, Diag. #     83  sIceLoad  vol(   0 ): 3.580E+14  Parms: SM      U1      
 Compute Stats, Diag. #    223  SIuice    vol(   0 ): 3.513E+14  Parms: UU      M1      
 Compute Stats, Diag. #    224  SIvice    vol(   0 ): 3.508E+14  Parms: VV      M1      
 Compute Stats, Diag. #    225  SItaux    vol(   0 ): 3.513E+14  Parms: UU      U1      
 Compute Stats, Diag. #    226  SItauy    vol(   0 ): 3.508E+14  Parms: VV      U1      
 cg2d: Sum(rhs),rhsMax =   2.67036188612336E+01  2.88290593493389E-01
 Compute Stats, Diag. #    214  SIarea    vol(   0 ): 3.580E+14  Parms: SM      M1      
 Compute Stats, Diag. #    217  SIheff    vol(   0 ): 3.580E+14  Parms: SM      M1      
 Compute Stats, Diag. #    219  SIhsnow   vol(   0 ): 3.580E+14  Parms: SM      M1      
 Compute Stats, Diag. #     83  sIceLoad  vol(   0 ): 3.580E+14  Parms: SM      U1      
 Compute Stats, Diag. #    223  SIuice    vol(   0 ): 3.513E+14  Parms: UU      M1      
 Compute Stats, Diag. #    224  SIvice    vol(   0 ): 3.508E+14  Parms: VV      M1      
 Compute Stats, Diag. #    225  SItaux    vol(   0 ): 3.513E+14  Parms: UU      U1      
 Compute Stats, Diag. #    226  SItauy    vol(   0 ): 3.508E+14  Parms: VV      U1      
 cg2d: Sum(rhs),rhsMax =   2.66195076325831E+01  2.88075033059845E-01
 Compute Stats, Diag. #    214  SIarea    vol(   0 ): 3.580E+14  Parms: SM      M1      
 Compute Stats, Diag. #    217  SIheff    vol(   0 ): 3.580E+14  Parms: SM      M1      
 Compute Stats, Diag. #    219  SIhsnow   vol(   0 ): 3.580E+14  Parms: SM      M1      
 Compute Stats, Diag. #     83  sIceLoad  vol(   0 ): 3.580E+14  Parms: SM      U1      
 Compute Stats, Diag. #    223  SIuice    vol(   0 ): 3.513E+14  Parms: UU      M1      
 Compute Stats, Diag. #    224  SIvice    vol(   0 ): 3.508E+14  Parms: VV      M1      
 Compute Stats, Diag. #    225  SItaux    vol(   0 ): 3.513E+14  Parms: UU      U1      
 Compute Stats, Diag. #    226  SItauy    vol(   0 ): 3.508E+14  Parms: VV      U1      
 cg2d: Sum(rhs),rhsMax =   2.65394225906547E+01  2.87861528320367E-01
 Computing Diagnostic #     86  oceQnet      Counter:       4   Parms: SM      U1      
 Computing Diagnostic #     87  oceQsw       Counter:       4   Parms: SM      U1      
 Computing Diagnostic #     84  oceFWflx     Counter:       4   Parms: SM      U1      
 Computing Diagnostic #     85  oceSflux     Counter:       4   Parms: SM      U1      
 Computing Diagnostic #     80  oceTAUX      Counter:       4   Parms: UU      U1      
           Vector  Mate for  oceTAUX      Diagnostic #     81  oceTAUY  exists 
 Computing Diagnostic #     81  oceTAUY      Counter:       4   Parms: VV      U1      
           Vector  Mate for  oceTAUY      Diagnostic #     80  oceTAUX  exists 
 Computing Diagnostic #     26  THETA        Counter:       4   Parms: SMR     MR      
 Computing Diagnostic #     27  SALT         Counter:       4   Parms: SMR     MR      
 Computing Diagnostic #     30  UVEL         Counter:       4   Parms: UUR     MR      
           Vector  Mate for  UVEL         Diagnostic #     31  VVEL     exists 
 Computing Diagnostic #     31  VVEL         Counter:       4   Parms: VVR     MR      
           Vector  Mate for  VVEL         Diagnostic #     30  UVEL     exists 
 Computing Diagnostic #    214  SIarea       Counter:       4   Parms: SM      M1      
 Computing Diagnostic #    217  SIheff       Counter:       4   Parms: SM      M1      
 Computing Diagnostic #    219  SIhsnow      Counter:       4   Parms: SM      M1      
 Computing Diagnostic #     83  sIceLoad     Counter:       4   Parms: SM      U1      
 Computing Diagnostic #    223  SIuice       Counter:       4   Parms: UU      M1      
           Vector  Mate for  SIuice       Diagnostic #    224  SIvice   exists 
 Computing Diagnostic #    224  SIvice       Counter:       4   Parms: VV      M1      
           Vector  Mate for  SIvice       Diagnostic #    223  SIuice   exists 
 Computing Diagnostic #    225  SItaux       Counter:       4   Parms: UU      U1      
           Vector  Mate for  SItaux       Diagnostic #    226  SItauy   exists 
 Computing Diagnostic #    226  SItauy       Counter:       4   Parms: VV      U1      
           Vector  Mate for  SItauy       Diagnostic #    225  SItaux   exists 
 Computing Diagnostic #    285  SIareaN      Counter:       4   Parms: SM      MX      
 Computing Diagnostic #    284  SIheffN      Counter:       4   Parms: SM      MX      
 Computing Diagnostic #    286  SIhsnowN     Counter:       4   Parms: SM      MX      
 Compute Stats, Diag. #    214  SIarea    vol(   0 ): 3.580E+14  Parms: SM      M1      
 Compute Stats, Diag. #    217  SIheff    vol(   0 ): 3.580E+14  Parms: SM      M1      
 Compute Stats, Diag. #    219  SIhsnow   vol(   0 ): 3.580E+14  Parms: SM      M1      
 Compute Stats, Diag. #     83  sIceLoad  vol(   0 ): 3.580E+14  Parms: SM      U1      
 Compute Stats, Diag. #    223  SIuice    vol(   0 ): 3.513E+14  Parms: UU      M1      
 Compute Stats, Diag. #    224  SIvice    vol(   0 ): 3.508E+14  Parms: VV      M1      
 Compute Stats, Diag. #    225  SItaux    vol(   0 ): 3.513E+14  Parms: UU      U1      
 Compute Stats, Diag. #    226  SItauy    vol(   0 ): 3.508E+14  Parms: VV      U1      
 cg2d: Sum(rhs),rhsMax =   2.64529559953496E+01  2.87651481396608E-01
 Compute Stats, Diag. #    214  SIarea    vol(   0 ): 3.580E+14  Parms: SM      M1      
 Compute Stats, Diag. #    217  SIheff    vol(   0 ): 3.580E+14  Parms: SM      M1      
 Compute Stats, Diag. #    219  SIhsnow   vol(   0 ): 3.580E+14  Parms: SM      M1      
 Compute Stats, Diag. #     83  sIceLoad  vol(   0 ): 3.580E+14  Parms: SM      U1      
 Compute Stats, Diag. #    223  SIuice    vol(   0 ): 3.513E+14  Parms: UU      M1      
 Compute Stats, Diag. #    224  SIvice    vol(   0 ): 3.508E+14  Parms: VV      M1      
 Compute Stats, Diag. #    225  SItaux    vol(   0 ): 3.513E+14  Parms: UU      U1      
 Compute Stats, Diag. #    226  SItauy    vol(   0 ): 3.508E+14  Parms: VV      U1      
 cg2d: Sum(rhs),rhsMax =   2.63677258100319E+01  2.87446243556595E-01
 Compute Stats, Diag. #    214  SIarea    vol(   0 ): 3.580E+14  Parms: SM      M1      
 Compute Stats, Diag. #    217  SIheff    vol(   0 ): 3.580E+14  Parms: SM      M1      
 Compute Stats, Diag. #    219  SIhsnow   vol(   0 ): 3.580E+14  Parms: SM      M1      
 Compute Stats, Diag. #     83  sIceLoad  vol(   0 ): 3.580E+14  Parms: SM      U1      
 Compute Stats, Diag. #    223  SIuice    vol(   0 ): 3.513E+14  Parms: UU      M1      
 Compute Stats, Diag. #    224  SIvice    vol(   0 ): 3.508E+14  Parms: VV      M1      
 Compute Stats, Diag. #    225  SItaux    vol(   0 ): 3.513E+14  Parms: UU      U1      
 Compute Stats, Diag. #    226  SItauy    vol(   0 ): 3.508E+14  Parms: VV      U1      
 cg2d: Sum(rhs),rhsMax =   2.62797834798108E+01  2.87247172145996E-01
 Compute Stats, Diag. #    214  SIarea    vol(   0 ): 3.580E+14  Parms: SM      M1      
 Compute Stats, Diag. #    217  SIheff    vol(   0 ): 3.580E+14  Parms: SM      M1      
 Compute Stats, Diag. #    219  SIhsnow   vol(   0 ): 3.580E+14  Parms: SM      M1      
 Compute Stats, Diag. #     83  sIceLoad  vol(   0 ): 3.580E+14  Parms: SM      U1      
 Compute Stats, Diag. #    223  SIuice    vol(   0 ): 3.513E+14  Parms: UU      M1      
 Compute Stats, Diag. #    224  SIvice    vol(   0 ): 3.508E+14  Parms: VV      M1      
 Compute Stats, Diag. #    225  SItaux    vol(   0 ): 3.513E+14  Parms: UU      U1      
 Compute Stats, Diag. #    226  SItauy    vol(   0 ): 3.508E+14  Parms: VV      U1      
 cg2d: Sum(rhs),rhsMax =   2.61983143337944E+01  2.87055538618196E-01
(PID.TID 0000.0001)      cg2d_init_res =   8.89535402147410E-02
(PID.TID 0000.0001)      cg2d_iters(min,last) =      -1      26
(PID.TID 0000.0001)      cg2d_last_res =   2.13292556245252E-05
(PID.TID 0000.0001) // =======================================================
(PID.TID 0000.0001) // Begin MONITOR dynamic field statistics
(PID.TID 0000.0001) // =======================================================
(PID.TID 0000.0001) %MON time_tsnumber                =                   352
(PID.TID 0000.0001) %MON time_secondsf                =   3.1680000000000E+05
(PID.TID 0000.0001) %MON dynstat_eta_max              =   1.0464981539280E+00
(PID.TID 0000.0001) %MON dynstat_eta_min              =  -1.8872068864338E+00
(PID.TID 0000.0001) %MON dynstat_eta_mean             =  -8.2873635424207E-04
(PID.TID 0000.0001) %MON dynstat_eta_sd               =   6.3972740401013E-01
(PID.TID 0000.0001) %MON dynstat_eta_del2             =   5.9807281402890E-05
(PID.TID 0000.0001) %MON dynstat_uvel_max             =   9.2369899243984E-01
(PID.TID 0000.0001) %MON dynstat_uvel_min             =  -6.4175167951682E-01
(PID.TID 0000.0001) %MON dynstat_uvel_mean            =   9.7560746684208E-04
(PID.TID 0000.0001) %MON dynstat_uvel_sd              =   1.9309913958400E-02
(PID.TID 0000.0001) %MON dynstat_uvel_del2            =   7.9254336002319E-06
(PID.TID 0000.0001) %MON dynstat_vvel_max             =   1.0923816938341E+00
(PID.TID 0000.0001) %MON dynstat_vvel_min             =  -8.5259297173234E-01
(PID.TID 0000.0001) %MON dynstat_vvel_mean            =   9.6799927827100E-04
(PID.TID 0000.0001) %MON dynstat_vvel_sd              =   2.0892872574605E-02
(PID.TID 0000.0001) %MON dynstat_vvel_del2            =   8.2692913744744E-06
(PID.TID 0000.0001) %MON dynstat_wvel_max             =   3.9811989024213E-04
(PID.TID 0000.0001) %MON dynstat_wvel_min             =  -7.9894984771767E-04
(PID.TID 0000.0001) %MON dynstat_wvel_mean            =   4.2186334668227E-10
(PID.TID 0000.0001) %MON dynstat_wvel_sd              =   2.0265276250186E-05
(PID.TID 0000.0001) %MON dynstat_wvel_del2            =   1.6209178496849E-08
(PID.TID 0000.0001) %MON dynstat_theta_max            =   3.2333858813754E+01
(PID.TID 0000.0001) %MON dynstat_theta_min            =  -2.0693640409806E+00
(PID.TID 0000.0001) %MON dynstat_theta_mean           =   3.5903858532955E+00
(PID.TID 0000.0001) %MON dynstat_theta_sd             =   4.4361612409769E+00
(PID.TID 0000.0001) %MON dynstat_theta_del2           =   9.6662549307963E-05
(PID.TID 0000.0001) %MON dynstat_salt_max             =   4.0711549062729E+01
(PID.TID 0000.0001) %MON dynstat_salt_min             =   1.2111975595450E+01
(PID.TID 0000.0001) %MON dynstat_salt_mean            =   3.4725578767784E+01
(PID.TID 0000.0001) %MON dynstat_salt_sd              =   3.7701315251024E-01
(PID.TID 0000.0001) %MON dynstat_salt_del2            =   3.5287790114478E-05
(PID.TID 0000.0001) %MON dynstat_sst_max              =   3.2333858813754E+01
(PID.TID 0000.0001) %MON dynstat_sst_min              =  -1.8056871964433E+00
(PID.TID 0000.0001) %MON dynstat_sst_mean             =   1.8476410017400E+01
(PID.TID 0000.0001) %MON dynstat_sst_sd               =   1.0176667617756E+01
(PID.TID 0000.0001) %MON dynstat_sst_del2             =   8.1572381742494E-04
(PID.TID 0000.0001) %MON dynstat_sss_max              =   3.9124665459313E+01
(PID.TID 0000.0001) %MON dynstat_sss_min              =   1.2111975595450E+01
(PID.TID 0000.0001) %MON dynstat_sss_mean             =   3.4698753986278E+01
(PID.TID 0000.0001) %MON dynstat_sss_sd               =   1.1525217293063E+00
(PID.TID 0000.0001) %MON dynstat_sss_del2             =   1.0838181163875E-03
(PID.TID 0000.0001) %MON forcing_qnet_max             =   7.1748108455471E+02
(PID.TID 0000.0001) %MON forcing_qnet_min             =  -7.6562530517578E+02
(PID.TID 0000.0001) %MON forcing_qnet_mean            =   1.6826734168555E+01
(PID.TID 0000.0001) %MON forcing_qnet_sd              =   1.9315507167807E+02
(PID.TID 0000.0001) %MON forcing_qnet_del2            =   3.1708496006779E-01
(PID.TID 0000.0001) %MON forcing_qsw_max              =   0.0000000000000E+00
(PID.TID 0000.0001) %MON forcing_qsw_min              =  -1.0483972321355E+02
(PID.TID 0000.0001) %MON forcing_qsw_mean             =  -1.5718516439763E+01
(PID.TID 0000.0001) %MON forcing_qsw_sd               =   2.7654237654300E+01
(PID.TID 0000.0001) %MON forcing_qsw_del2             =   2.0194404761609E-02
(PID.TID 0000.0001) %MON forcing_empmr_max            =   1.9927301909775E-03
(PID.TID 0000.0001) %MON forcing_empmr_min            =  -1.0788431763649E-01
(PID.TID 0000.0001) %MON forcing_empmr_mean           =  -2.9465178144914E-06
(PID.TID 0000.0001) %MON forcing_empmr_sd             =   3.0939838390742E-04
(PID.TID 0000.0001) %MON forcing_empmr_del2           =   4.8116852459627E-06
(PID.TID 0000.0001) %MON forcing_fu_max               =   8.4145888686180E-01
(PID.TID 0000.0001) %MON forcing_fu_min               =  -4.9251211967058E-01
(PID.TID 0000.0001) %MON forcing_fu_mean              =   5.8039230705348E-03
(PID.TID 0000.0001) %MON forcing_fu_sd                =   8.9468955546665E-02
(PID.TID 0000.0001) %MON forcing_fu_del2              =   1.1646679618955E-04
(PID.TID 0000.0001) %MON forcing_fv_max               =   8.6315172910690E-01
(PID.TID 0000.0001) %MON forcing_fv_min               =  -7.4355438825997E-01
(PID.TID 0000.0001) %MON forcing_fv_mean              =  -3.2074157906180E-03
(PID.TID 0000.0001) %MON forcing_fv_sd                =   9.9481819666201E-02
(PID.TID 0000.0001) %MON forcing_fv_del2              =   1.1620306930140E-04
(PID.TID 0000.0001) %MON trAdv_CFL_u_max              =   1.0710993451860E-02
(PID.TID 0000.0001) %MON trAdv_CFL_v_max              =   1.8836828638757E-02
(PID.TID 0000.0001) %MON trAdv_CFL_w_max              =   2.2350871922465E-02
(PID.TID 0000.0001) %MON advcfl_uvel_max              =   1.0617727283542E-02
(PID.TID 0000.0001) %MON advcfl_vvel_max              =   1.9390762764055E-02
(PID.TID 0000.0001) %MON advcfl_wvel_max              =   2.1145937743581E-02
(PID.TID 0000.0001) %MON advcfl_W_hf_max              =   2.1371655455732E-02
(PID.TID 0000.0001) %MON pe_b_mean                    =   5.3833053420661E-04
(PID.TID 0000.0001) %MON ke_max                       =   5.8320185965021E-01
(PID.TID 0000.0001) %MON ke_mean                      =   3.9119369360335E-04
(PID.TID 0000.0001) %MON ke_vol                       =   1.3349975793175E+18
(PID.TID 0000.0001) %MON vort_r_min                   =  -1.9829585078647E-05
(PID.TID 0000.0001) %MON vort_r_max                   =   3.0444206673896E-05
(PID.TID 0000.0001) %MON vort_a_mean                  =  -1.9727864647440E-05
(PID.TID 0000.0001) %MON vort_a_sd                    =   7.4542940010392E-05
(PID.TID 0000.0001) %MON vort_p_mean                  =  -2.1760537014456E-05
(PID.TID 0000.0001) %MON vort_p_sd                    =   9.7246937544891E-05
(PID.TID 0000.0001) %MON surfExpan_theta_mean         =  -6.0436636632289E-07
(PID.TID 0000.0001) %MON surfExpan_salt_mean          =  -8.3820038517035E-09
(PID.TID 0000.0001) // =======================================================
(PID.TID 0000.0001) // End MONITOR dynamic field statistics
(PID.TID 0000.0001) // =======================================================
(PID.TID 0000.0001) // =======================================================
(PID.TID 0000.0001) // Begin MONITOR SEAICE statistics
(PID.TID 0000.0001) // =======================================================
(PID.TID 0000.0001) %MON seaice_tsnumber              =                   352
(PID.TID 0000.0001) %MON seaice_time_sec              =   3.1680000000000E+05
(PID.TID 0000.0001) %MON seaice_uice_max              =   4.0000000000000E-01
(PID.TID 0000.0001) %MON seaice_uice_min              =  -4.0000000000000E-01
(PID.TID 0000.0001) %MON seaice_uice_mean             =  -8.3054598624025E-03
(PID.TID 0000.0001) %MON seaice_uice_sd               =   1.9802383574176E-01
(PID.TID 0000.0001) %MON seaice_uice_del2             =   2.2931571122150E-04
(PID.TID 0000.0001) %MON seaice_vice_max              =   4.0000000000000E-01
(PID.TID 0000.0001) %MON seaice_vice_min              =  -4.0000000000000E-01
(PID.TID 0000.0001) %MON seaice_vice_mean             =  -2.1960776359499E-02
(PID.TID 0000.0001) %MON seaice_vice_sd               =   2.1302038025672E-01
(PID.TID 0000.0001) %MON seaice_vice_del2             =   2.3932563818061E-04
(PID.TID 0000.0001) %MON seaice_area_max              =   1.0000000000000E+00
(PID.TID 0000.0001) %MON seaice_area_min              =   0.0000000000000E+00
(PID.TID 0000.0001) %MON seaice_area_mean             =   6.7798467762127E-02
(PID.TID 0000.0001) %MON seaice_area_sd               =   2.3330874591726E-01
(PID.TID 0000.0001) %MON seaice_area_del2             =   4.2451148770515E-04
(PID.TID 0000.0001) %MON seaice_heff_max              =   2.5131457037991E+01
(PID.TID 0000.0001) %MON seaice_heff_min              =   0.0000000000000E+00
(PID.TID 0000.0001) %MON seaice_heff_mean             =   2.1467989777593E-01
(PID.TID 0000.0001) %MON seaice_heff_sd               =   1.0687444703103E+00
(PID.TID 0000.0001) %MON seaice_heff_del2             =   3.8815388479287E-03
(PID.TID 0000.0001) %MON seaice_hsnow_max             =   8.3006023812341E+00
(PID.TID 0000.0001) %MON seaice_hsnow_min             =   0.0000000000000E+00
(PID.TID 0000.0001) %MON seaice_hsnow_mean            =   2.4333143689551E-02
(PID.TID 0000.0001) %MON seaice_hsnow_sd              =   1.5697024794674E-01
(PID.TID 0000.0001) %MON seaice_hsnow_del2            =   1.2470597810626E-03
(PID.TID 0000.0001) // =======================================================
(PID.TID 0000.0001) // End MONITOR SEAICE statistics
(PID.TID 0000.0001) // =======================================================
 Computing Diagnostic #     86  oceQnet      Counter:       4   Parms: SM      U1      
 Computing Diagnostic #     87  oceQsw       Counter:       4   Parms: SM      U1      
 Computing Diagnostic #     84  oceFWflx     Counter:       4   Parms: SM      U1      
 Computing Diagnostic #     85  oceSflux     Counter:       4   Parms: SM      U1      
 Computing Diagnostic #     80  oceTAUX      Counter:       4   Parms: UU      U1      
           Vector  Mate for  oceTAUX      Diagnostic #     81  oceTAUY  exists 
 Computing Diagnostic #     81  oceTAUY      Counter:       4   Parms: VV      U1      
           Vector  Mate for  oceTAUY      Diagnostic #     80  oceTAUX  exists 
 Computing Diagnostic #     26  THETA        Counter:       4   Parms: SMR     MR      
 Computing Diagnostic #     27  SALT         Counter:       4   Parms: SMR     MR      
 Computing Diagnostic #     30  UVEL         Counter:       4   Parms: UUR     MR      
           Vector  Mate for  UVEL         Diagnostic #     31  VVEL     exists 
 Computing Diagnostic #     31  VVEL         Counter:       4   Parms: VVR     MR      
           Vector  Mate for  VVEL         Diagnostic #     30  UVEL     exists 
 Computing Diagnostic #    214  SIarea       Counter:       4   Parms: SM      M1      
 Computing Diagnostic #    217  SIheff       Counter:       4   Parms: SM      M1      
 Computing Diagnostic #    219  SIhsnow      Counter:       4   Parms: SM      M1      
 Computing Diagnostic #     83  sIceLoad     Counter:       4   Parms: SM      U1      
 Computing Diagnostic #    223  SIuice       Counter:       4   Parms: UU      M1      
           Vector  Mate for  SIuice       Diagnostic #    224  SIvice   exists 
 Computing Diagnostic #    224  SIvice       Counter:       4   Parms: VV      M1      
           Vector  Mate for  SIvice       Diagnostic #    223  SIuice   exists 
 Computing Diagnostic #    225  SItaux       Counter:       4   Parms: UU      U1      
           Vector  Mate for  SItaux       Diagnostic #    226  SItauy   exists 
 Computing Diagnostic #    226  SItauy       Counter:       4   Parms: VV      U1      
           Vector  Mate for  SItauy       Diagnostic #    225  SItaux   exists 
 Computing Diagnostic #    285  SIareaN      Counter:       4   Parms: SM      MX      
 Computing Diagnostic #    284  SIheffN      Counter:       4   Parms: SM      MX      
 Computing Diagnostic #    286  SIhsnowN     Counter:       4   Parms: SM      MX      
 Compute Stats, Diag. #    214  SIarea    vol(   0 ): 3.580E+14  Parms: SM      M1      
 Compute Stats, Diag. #    217  SIheff    vol(   0 ): 3.580E+14  Parms: SM      M1      
 Compute Stats, Diag. #    219  SIhsnow   vol(   0 ): 3.580E+14  Parms: SM      M1      
 Compute Stats, Diag. #     83  sIceLoad  vol(   0 ): 3.580E+14  Parms: SM      U1      
 Compute Stats, Diag. #    223  SIuice    vol(   0 ): 3.513E+14  Parms: UU      M1      
 Compute Stats, Diag. #    224  SIvice    vol(   0 ): 3.508E+14  Parms: VV      M1      
 Compute Stats, Diag. #    225  SItaux    vol(   0 ): 3.513E+14  Parms: UU      U1      
 Compute Stats, Diag. #    226  SItauy    vol(   0 ): 3.508E+14  Parms: VV      U1      
 cg2d: Sum(rhs),rhsMax =   2.61187316000669E+01  2.86872651126534E-01
 Compute Stats, Diag. #    214  SIarea    vol(   0 ): 3.580E+14  Parms: SM      M1      
 Compute Stats, Diag. #    217  SIheff    vol(   0 ): 3.580E+14  Parms: SM      M1      
 Compute Stats, Diag. #    219  SIhsnow   vol(   0 ): 3.580E+14  Parms: SM      M1      
 Compute Stats, Diag. #     83  sIceLoad  vol(   0 ): 3.580E+14  Parms: SM      U1      
 Compute Stats, Diag. #    223  SIuice    vol(   0 ): 3.513E+14  Parms: UU      M1      
 Compute Stats, Diag. #    224  SIvice    vol(   0 ): 3.508E+14  Parms: VV      M1      
 Compute Stats, Diag. #    225  SItaux    vol(   0 ): 3.513E+14  Parms: UU      U1      
 Compute Stats, Diag. #    226  SItauy    vol(   0 ): 3.508E+14  Parms: VV      U1      
 cg2d: Sum(rhs),rhsMax =   2.60453806305050E+01  2.86699194147392E-01
 Compute Stats, Diag. #    214  SIarea    vol(   0 ): 3.580E+14  Parms: SM      M1      
 Compute Stats, Diag. #    217  SIheff    vol(   0 ): 3.580E+14  Parms: SM      M1      
 Compute Stats, Diag. #    219  SIhsnow   vol(   0 ): 3.580E+14  Parms: SM      M1      
 Compute Stats, Diag. #     83  sIceLoad  vol(   0 ): 3.580E+14  Parms: SM      U1      
 Compute Stats, Diag. #    223  SIuice    vol(   0 ): 3.513E+14  Parms: UU      M1      
 Compute Stats, Diag. #    224  SIvice    vol(   0 ): 3.508E+14  Parms: VV      M1      
 Compute Stats, Diag. #    225  SItaux    vol(   0 ): 3.513E+14  Parms: UU      U1      
 Compute Stats, Diag. #    226  SItauy    vol(   0 ): 3.508E+14  Parms: VV      U1      
 cg2d: Sum(rhs),rhsMax =   2.59696638173435E+01  2.86536442571133E-01
 Compute Stats, Diag. #    214  SIarea    vol(   0 ): 3.580E+14  Parms: SM      M1      
 Compute Stats, Diag. #    217  SIheff    vol(   0 ): 3.580E+14  Parms: SM      M1      
 Compute Stats, Diag. #    219  SIhsnow   vol(   0 ): 3.580E+14  Parms: SM      M1      
 Compute Stats, Diag. #     83  sIceLoad  vol(   0 ): 3.580E+14  Parms: SM      U1      
 Compute Stats, Diag. #    223  SIuice    vol(   0 ): 3.513E+14  Parms: UU      M1      
 Compute Stats, Diag. #    224  SIvice    vol(   0 ): 3.508E+14  Parms: VV      M1      
 Compute Stats, Diag. #    225  SItaux    vol(   0 ): 3.513E+14  Parms: UU      U1      
 Compute Stats, Diag. #    226  SItauy    vol(   0 ): 3.508E+14  Parms: VV      U1      
 cg2d: Sum(rhs),rhsMax =   2.58863520803868E+01  2.86384588803697E-01
 Computing Diagnostic #     86  oceQnet      Counter:       4   Parms: SM      U1      
 Computing Diagnostic #     87  oceQsw       Counter:       4   Parms: SM      U1      
 Computing Diagnostic #     84  oceFWflx     Counter:       4   Parms: SM      U1      
 Computing Diagnostic #     85  oceSflux     Counter:       4   Parms: SM      U1      
 Computing Diagnostic #     80  oceTAUX      Counter:       4   Parms: UU      U1      
           Vector  Mate for  oceTAUX      Diagnostic #     81  oceTAUY  exists 
 Computing Diagnostic #     81  oceTAUY      Counter:       4   Parms: VV      U1      
           Vector  Mate for  oceTAUY      Diagnostic #     80  oceTAUX  exists 
 Computing Diagnostic #     26  THETA        Counter:       4   Parms: SMR     MR      
 Computing Diagnostic #     27  SALT         Counter:       4   Parms: SMR     MR      
 Computing Diagnostic #     30  UVEL         Counter:       4   Parms: UUR     MR      
           Vector  Mate for  UVEL         Diagnostic #     31  VVEL     exists 
 Computing Diagnostic #     31  VVEL         Counter:       4   Parms: VVR     MR      
           Vector  Mate for  VVEL         Diagnostic #     30  UVEL     exists 
 Computing Diagnostic #    214  SIarea       Counter:       4   Parms: SM      M1      
 Computing Diagnostic #    217  SIheff       Counter:       4   Parms: SM      M1      
 Computing Diagnostic #    219  SIhsnow      Counter:       4   Parms: SM      M1      
 Computing Diagnostic #     83  sIceLoad     Counter:       4   Parms: SM      U1      
 Computing Diagnostic #    223  SIuice       Counter:       4   Parms: UU      M1      
           Vector  Mate for  SIuice       Diagnostic #    224  SIvice   exists 
 Computing Diagnostic #    224  SIvice       Counter:       4   Parms: VV      M1      
           Vector  Mate for  SIvice       Diagnostic #    223  SIuice   exists 
 Computing Diagnostic #    225  SItaux       Counter:       4   Parms: UU      U1      
           Vector  Mate for  SItaux       Diagnostic #    226  SItauy   exists 
 Computing Diagnostic #    226  SItauy       Counter:       4   Parms: VV      U1      
           Vector  Mate for  SItauy       Diagnostic #    225  SItaux   exists 
 Computing Diagnostic #    285  SIareaN      Counter:       4   Parms: SM      MX      
 Computing Diagnostic #    284  SIheffN      Counter:       4   Parms: SM      MX      
 Computing Diagnostic #    286  SIhsnowN     Counter:       4   Parms: SM      MX      
 Compute Stats, Diag. #    214  SIarea    vol(   0 ): 3.580E+14  Parms: SM      M1      
 Compute Stats, Diag. #    217  SIheff    vol(   0 ): 3.580E+14  Parms: SM      M1      
 Compute Stats, Diag. #    219  SIhsnow   vol(   0 ): 3.580E+14  Parms: SM      M1      
 Compute Stats, Diag. #     83  sIceLoad  vol(   0 ): 3.580E+14  Parms: SM      U1      
 Compute Stats, Diag. #    223  SIuice    vol(   0 ): 3.513E+14  Parms: UU      M1      
 Compute Stats, Diag. #    224  SIvice    vol(   0 ): 3.508E+14  Parms: VV      M1      
 Compute Stats, Diag. #    225  SItaux    vol(   0 ): 3.513E+14  Parms: UU      U1      
 Compute Stats, Diag. #    226  SItauy    vol(   0 ): 3.508E+14  Parms: VV      U1      
 cg2d: Sum(rhs),rhsMax =   2.58094678687395E+01  2.86244682286148E-01
 Compute Stats, Diag. #    214  SIarea    vol(   0 ): 3.580E+14  Parms: SM      M1      
 Compute Stats, Diag. #    217  SIheff    vol(   0 ): 3.580E+14  Parms: SM      M1      
 Compute Stats, Diag. #    219  SIhsnow   vol(   0 ): 3.580E+14  Parms: SM      M1      
 Compute Stats, Diag. #     83  sIceLoad  vol(   0 ): 3.580E+14  Parms: SM      U1      
 Compute Stats, Diag. #    223  SIuice    vol(   0 ): 3.513E+14  Parms: UU      M1      
 Compute Stats, Diag. #    224  SIvice    vol(   0 ): 3.508E+14  Parms: VV      M1      
 Compute Stats, Diag. #    225  SItaux    vol(   0 ): 3.513E+14  Parms: UU      U1      
 Compute Stats, Diag. #    226  SItauy    vol(   0 ): 3.508E+14  Parms: VV      U1      
 cg2d: Sum(rhs),rhsMax =   2.57237401748818E+01  2.86117357773784E-01
 Compute Stats, Diag. #    214  SIarea    vol(   0 ): 3.580E+14  Parms: SM      M1      
 Compute Stats, Diag. #    217  SIheff    vol(   0 ): 3.580E+14  Parms: SM      M1      
 Compute Stats, Diag. #    219  SIhsnow   vol(   0 ): 3.580E+14  Parms: SM      M1      
 Compute Stats, Diag. #     83  sIceLoad  vol(   0 ): 3.580E+14  Parms: SM      U1      
 Compute Stats, Diag. #    223  SIuice    vol(   0 ): 3.513E+14  Parms: UU      M1      
 Compute Stats, Diag. #    224  SIvice    vol(   0 ): 3.508E+14  Parms: VV      M1      
 Compute Stats, Diag. #    225  SItaux    vol(   0 ): 3.513E+14  Parms: UU      U1      
 Compute Stats, Diag. #    226  SItauy    vol(   0 ): 3.508E+14  Parms: VV      U1      
 cg2d: Sum(rhs),rhsMax =   2.56509885957081E+01  2.86002918292327E-01
 Compute Stats, Diag. #    214  SIarea    vol(   0 ): 3.580E+14  Parms: SM      M1      
 Compute Stats, Diag. #    217  SIheff    vol(   0 ): 3.580E+14  Parms: SM      M1      
 Compute Stats, Diag. #    219  SIhsnow   vol(   0 ): 3.580E+14  Parms: SM      M1      
 Compute Stats, Diag. #     83  sIceLoad  vol(   0 ): 3.580E+14  Parms: SM      U1      
 Compute Stats, Diag. #    223  SIuice    vol(   0 ): 3.513E+14  Parms: UU      M1      
 Compute Stats, Diag. #    224  SIvice    vol(   0 ): 3.508E+14  Parms: VV      M1      
 Compute Stats, Diag. #    225  SItaux    vol(   0 ): 3.513E+14  Parms: UU      U1      
 Compute Stats, Diag. #    226  SItauy    vol(   0 ): 3.508E+14  Parms: VV      U1      
 cg2d: Sum(rhs),rhsMax =   2.55824506995122E+01  2.85901594580203E-01
(PID.TID 0000.0001)      cg2d_init_res =   7.75410736161240E-02
(PID.TID 0000.0001)      cg2d_iters(min,last) =      -1      24
(PID.TID 0000.0001)      cg2d_last_res =   2.83867289378375E-05
(PID.TID 0000.0001) // =======================================================
(PID.TID 0000.0001) // Begin MONITOR dynamic field statistics
(PID.TID 0000.0001) // =======================================================
(PID.TID 0000.0001) %MON time_tsnumber                =                   360
(PID.TID 0000.0001) %MON time_secondsf                =   3.2400000000000E+05
(PID.TID 0000.0001) %MON dynstat_eta_max              =   1.0470509199890E+00
(PID.TID 0000.0001) %MON dynstat_eta_min              =  -1.8855599166665E+00
(PID.TID 0000.0001) %MON dynstat_eta_mean             =  -8.0925462055192E-04
(PID.TID 0000.0001) %MON dynstat_eta_sd               =   6.3891892920821E-01
(PID.TID 0000.0001) %MON dynstat_eta_del2             =   5.9372913258439E-05
(PID.TID 0000.0001) %MON dynstat_uvel_max             =   9.2177475198662E-01
(PID.TID 0000.0001) %MON dynstat_uvel_min             =  -6.1996136675026E-01
(PID.TID 0000.0001) %MON dynstat_uvel_mean            =   9.8274533966969E-04
(PID.TID 0000.0001) %MON dynstat_uvel_sd              =   1.9264985253962E-02
(PID.TID 0000.0001) %MON dynstat_uvel_del2            =   7.8851569251806E-06
(PID.TID 0000.0001) %MON dynstat_vvel_max             =   1.0668769734012E+00
(PID.TID 0000.0001) %MON dynstat_vvel_min             =  -8.5013743210117E-01
(PID.TID 0000.0001) %MON dynstat_vvel_mean            =   1.0068154498391E-03
(PID.TID 0000.0001) %MON dynstat_vvel_sd              =   2.0840316351478E-02
(PID.TID 0000.0001) %MON dynstat_vvel_del2            =   8.2169853435865E-06
(PID.TID 0000.0001) %MON dynstat_wvel_max             =   3.9067157615765E-04
(PID.TID 0000.0001) %MON dynstat_wvel_min             =  -8.1837556073004E-04
(PID.TID 0000.0001) %MON dynstat_wvel_mean            =   4.7782026100746E-09
(PID.TID 0000.0001) %MON dynstat_wvel_sd              =   2.0143690033203E-05
(PID.TID 0000.0001) %MON dynstat_wvel_del2            =   1.6016030910028E-08
(PID.TID 0000.0001) %MON dynstat_theta_max            =   3.2317681699318E+01
(PID.TID 0000.0001) %MON dynstat_theta_min            =  -2.0720228997571E+00
(PID.TID 0000.0001) %MON dynstat_theta_mean           =   3.5903802017734E+00
(PID.TID 0000.0001) %MON dynstat_theta_sd             =   4.4361450977301E+00
(PID.TID 0000.0001) %MON dynstat_theta_del2           =   9.6547094493361E-05
(PID.TID 0000.0001) %MON dynstat_salt_max             =   4.0711549590607E+01
(PID.TID 0000.0001) %MON dynstat_salt_min             =   1.2098655566793E+01
(PID.TID 0000.0001) %MON dynstat_salt_mean            =   3.4725578535745E+01
(PID.TID 0000.0001) %MON dynstat_salt_sd              =   3.7701223606925E-01
(PID.TID 0000.0001) %MON dynstat_salt_del2            =   3.5132952510972E-05
(PID.TID 0000.0001) %MON dynstat_sst_max              =   3.2317681699318E+01
(PID.TID 0000.0001) %MON dynstat_sst_min              =  -1.8070249233429E+00
(PID.TID 0000.0001) %MON dynstat_sst_mean             =   1.8476698570186E+01
(PID.TID 0000.0001) %MON dynstat_sst_sd               =   1.0177093522916E+01
(PID.TID 0000.0001) %MON dynstat_sst_del2             =   8.1491322408244E-04
(PID.TID 0000.0001) %MON dynstat_sss_max              =   3.9123286399213E+01
(PID.TID 0000.0001) %MON dynstat_sss_min              =   1.2098655566793E+01
(PID.TID 0000.0001) %MON dynstat_sss_mean             =   3.4698906222737E+01
(PID.TID 0000.0001) %MON dynstat_sss_sd               =   1.1528070580968E+00
(PID.TID 0000.0001) %MON dynstat_sss_del2             =   1.0741879175519E-03
(PID.TID 0000.0001) %MON forcing_qnet_max             =   6.1410553533350E+02
(PID.TID 0000.0001) %MON forcing_qnet_min             =  -9.2120786214063E+02
(PID.TID 0000.0001) %MON forcing_qnet_mean            =   6.8835217243252E+00
(PID.TID 0000.0001) %MON forcing_qnet_sd              =   2.0171336937893E+02
(PID.TID 0000.0001) %MON forcing_qnet_del2            =   3.1470849727779E-01
(PID.TID 0000.0001) %MON forcing_qsw_max              =   0.0000000000000E+00
(PID.TID 0000.0001) %MON forcing_qsw_min              =  -1.0978883508183E+02
(PID.TID 0000.0001) %MON forcing_qsw_mean             =  -1.7334921153560E+01
(PID.TID 0000.0001) %MON forcing_qsw_sd               =   2.9325166933270E+01
(PID.TID 0000.0001) %MON forcing_qsw_del2             =   2.0783599948114E-02
(PID.TID 0000.0001) %MON forcing_empmr_max            =   1.4956325758249E-03
(PID.TID 0000.0001) %MON forcing_empmr_min            =  -4.9195185303688E-02
(PID.TID 0000.0001) %MON forcing_empmr_mean           =  -2.4788296179535E-06
(PID.TID 0000.0001) %MON forcing_empmr_sd             =   2.2148227570968E-04
(PID.TID 0000.0001) %MON forcing_empmr_del2           =   2.6890116998932E-06
(PID.TID 0000.0001) %MON forcing_fu_max               =   8.2579293847084E-01
(PID.TID 0000.0001) %MON forcing_fu_min               =  -5.1657576459294E-01
(PID.TID 0000.0001) %MON forcing_fu_mean              =   6.1062372442430E-03
(PID.TID 0000.0001) %MON forcing_fu_sd                =   8.9644210537964E-02
(PID.TID 0000.0001) %MON forcing_fu_del2              =   1.1630704405423E-04
(PID.TID 0000.0001) %MON forcing_fv_max               =   8.0734059214592E-01
(PID.TID 0000.0001) %MON forcing_fv_min               =  -7.7045175451657E-01
(PID.TID 0000.0001) %MON forcing_fv_mean              =  -2.5467783130335E-03
(PID.TID 0000.0001) %MON forcing_fv_sd                =   9.8013702766591E-02
(PID.TID 0000.0001) %MON forcing_fv_del2              =   1.1554857432442E-04
(PID.TID 0000.0001) %MON trAdv_CFL_u_max              =   1.0656797069025E-02
(PID.TID 0000.0001) %MON trAdv_CFL_v_max              =   1.8406880121219E-02
(PID.TID 0000.0001) %MON trAdv_CFL_w_max              =   2.2734523970603E-02
(PID.TID 0000.0001) %MON advcfl_uvel_max              =   1.0257208400985E-02
(PID.TID 0000.0001) %MON advcfl_vvel_max              =   1.8938030915774E-02
(PID.TID 0000.0001) %MON advcfl_wvel_max              =   2.1556033110345E-02
(PID.TID 0000.0001) %MON advcfl_W_hf_max              =   2.1786143066382E-02
(PID.TID 0000.0001) %MON pe_b_mean                    =   5.3697068853919E-04
(PID.TID 0000.0001) %MON ke_max                       =   5.5358847321100E-01
(PID.TID 0000.0001) %MON ke_mean                      =   3.8934405367627E-04
(PID.TID 0000.0001) %MON ke_vol                       =   1.3349975864387E+18
(PID.TID 0000.0001) %MON vort_r_min                   =  -1.9319755762554E-05
(PID.TID 0000.0001) %MON vort_r_max                   =   2.9667435373580E-05
(PID.TID 0000.0001) %MON vort_a_mean                  =  -1.9727864647440E-05
(PID.TID 0000.0001) %MON vort_a_sd                    =   7.4542943254920E-05
(PID.TID 0000.0001) %MON vort_p_mean                  =  -2.1760536788664E-05
(PID.TID 0000.0001) %MON vort_p_sd                    =   9.7246977773542E-05
(PID.TID 0000.0001) %MON surfExpan_theta_mean         =  -4.5815619237086E-07
(PID.TID 0000.0001) %MON surfExpan_salt_mean          =  -1.3093954069027E-08
(PID.TID 0000.0001) // =======================================================
(PID.TID 0000.0001) // End MONITOR dynamic field statistics
(PID.TID 0000.0001) // =======================================================
(PID.TID 0000.0001) // =======================================================
(PID.TID 0000.0001) // Begin MONITOR SEAICE statistics
(PID.TID 0000.0001) // =======================================================
(PID.TID 0000.0001) %MON seaice_tsnumber              =                   360
(PID.TID 0000.0001) %MON seaice_time_sec              =   3.2400000000000E+05
(PID.TID 0000.0001) %MON seaice_uice_max              =   4.0000000000000E-01
(PID.TID 0000.0001) %MON seaice_uice_min              =  -4.0000000000000E-01
(PID.TID 0000.0001) %MON seaice_uice_mean             =  -8.3054598624025E-03
(PID.TID 0000.0001) %MON seaice_uice_sd               =   1.9802383574176E-01
(PID.TID 0000.0001) %MON seaice_uice_del2             =   2.2931571122150E-04
(PID.TID 0000.0001) %MON seaice_vice_max              =   4.0000000000000E-01
(PID.TID 0000.0001) %MON seaice_vice_min              =  -4.0000000000000E-01
(PID.TID 0000.0001) %MON seaice_vice_mean             =  -2.1960776359499E-02
(PID.TID 0000.0001) %MON seaice_vice_sd               =   2.1302038025672E-01
(PID.TID 0000.0001) %MON seaice_vice_del2             =   2.3932563818061E-04
(PID.TID 0000.0001) %MON seaice_area_max              =   1.0000000000000E+00
(PID.TID 0000.0001) %MON seaice_area_min              =   0.0000000000000E+00
(PID.TID 0000.0001) %MON seaice_area_mean             =   6.7753904887431E-02
(PID.TID 0000.0001) %MON seaice_area_sd               =   2.3322984141619E-01
(PID.TID 0000.0001) %MON seaice_area_del2             =   4.2355350354828E-04
(PID.TID 0000.0001) %MON seaice_heff_max              =   2.5128417647677E+01
(PID.TID 0000.0001) %MON seaice_heff_min              =   0.0000000000000E+00
(PID.TID 0000.0001) %MON seaice_heff_mean             =   2.1462906441772E-01
(PID.TID 0000.0001) %MON seaice_heff_sd               =   1.0686811028781E+00
(PID.TID 0000.0001) %MON seaice_heff_del2             =   3.8805847339435E-03
(PID.TID 0000.0001) %MON seaice_hsnow_max             =   8.2996062764723E+00
(PID.TID 0000.0001) %MON seaice_hsnow_min             =   0.0000000000000E+00
(PID.TID 0000.0001) %MON seaice_hsnow_mean            =   2.4326516703658E-02
(PID.TID 0000.0001) %MON seaice_hsnow_sd              =   1.5694005045617E-01
(PID.TID 0000.0001) %MON seaice_hsnow_del2            =   1.2468451874051E-03
(PID.TID 0000.0001) // =======================================================
(PID.TID 0000.0001) // End MONITOR SEAICE statistics
(PID.TID 0000.0001) // =======================================================
 Computing Diagnostic #     86  oceQnet      Counter:       4   Parms: SM      U1      
 Computing Diagnostic #     87  oceQsw       Counter:       4   Parms: SM      U1      
 Computing Diagnostic #     84  oceFWflx     Counter:       4   Parms: SM      U1      
 Computing Diagnostic #     85  oceSflux     Counter:       4   Parms: SM      U1      
 Computing Diagnostic #     80  oceTAUX      Counter:       4   Parms: UU      U1      
           Vector  Mate for  oceTAUX      Diagnostic #     81  oceTAUY  exists 
 Computing Diagnostic #     81  oceTAUY      Counter:       4   Parms: VV      U1      
           Vector  Mate for  oceTAUY      Diagnostic #     80  oceTAUX  exists 
 Computing Diagnostic #     26  THETA        Counter:       4   Parms: SMR     MR      
 Computing Diagnostic #     27  SALT         Counter:       4   Parms: SMR     MR      
 Computing Diagnostic #     30  UVEL         Counter:       4   Parms: UUR     MR      
           Vector  Mate for  UVEL         Diagnostic #     31  VVEL     exists 
 Computing Diagnostic #     31  VVEL         Counter:       4   Parms: VVR     MR      
           Vector  Mate for  VVEL         Diagnostic #     30  UVEL     exists 
 Computing Diagnostic #    214  SIarea       Counter:       4   Parms: SM      M1      
 Computing Diagnostic #    217  SIheff       Counter:       4   Parms: SM      M1      
 Computing Diagnostic #    219  SIhsnow      Counter:       4   Parms: SM      M1      
 Computing Diagnostic #     83  sIceLoad     Counter:       4   Parms: SM      U1      
 Computing Diagnostic #    223  SIuice       Counter:       4   Parms: UU      M1      
           Vector  Mate for  SIuice       Diagnostic #    224  SIvice   exists 
 Computing Diagnostic #    224  SIvice       Counter:       4   Parms: VV      M1      
           Vector  Mate for  SIvice       Diagnostic #    223  SIuice   exists 
 Computing Diagnostic #    225  SItaux       Counter:       4   Parms: UU      U1      
           Vector  Mate for  SItaux       Diagnostic #    226  SItauy   exists 
 Computing Diagnostic #    226  SItauy       Counter:       4   Parms: VV      U1      
           Vector  Mate for  SItauy       Diagnostic #    225  SItaux   exists 
 Computing Diagnostic #    285  SIareaN      Counter:       4   Parms: SM      MX      
 Computing Diagnostic #    284  SIheffN      Counter:       4   Parms: SM      MX      
 Computing Diagnostic #    286  SIhsnowN     Counter:       4   Parms: SM      MX      
 Compute Stats, Diag. #    214  SIarea    vol(   0 ): 3.580E+14  Parms: SM      M1      
 Compute Stats, Diag. #    217  SIheff    vol(   0 ): 3.580E+14  Parms: SM      M1      
 Compute Stats, Diag. #    219  SIhsnow   vol(   0 ): 3.580E+14  Parms: SM      M1      
 Compute Stats, Diag. #     83  sIceLoad  vol(   0 ): 3.580E+14  Parms: SM      U1      
 Compute Stats, Diag. #    223  SIuice    vol(   0 ): 3.513E+14  Parms: UU      M1      
 Compute Stats, Diag. #    224  SIvice    vol(   0 ): 3.508E+14  Parms: VV      M1      
 Compute Stats, Diag. #    225  SItaux    vol(   0 ): 3.513E+14  Parms: UU      U1      
 Compute Stats, Diag. #    226  SItauy    vol(   0 ): 3.508E+14  Parms: VV      U1      
 cg2d: Sum(rhs),rhsMax =   2.55192892712700E+01  2.85814603828444E-01
 Compute Stats, Diag. #    214  SIarea    vol(   0 ): 3.580E+14  Parms: SM      M1      
 Compute Stats, Diag. #    217  SIheff    vol(   0 ): 3.580E+14  Parms: SM      M1      
 Compute Stats, Diag. #    219  SIhsnow   vol(   0 ): 3.580E+14  Parms: SM      M1      
 Compute Stats, Diag. #     83  sIceLoad  vol(   0 ): 3.580E+14  Parms: SM      U1      
 Compute Stats, Diag. #    223  SIuice    vol(   0 ): 3.513E+14  Parms: UU      M1      
 Compute Stats, Diag. #    224  SIvice    vol(   0 ): 3.508E+14  Parms: VV      M1      
 Compute Stats, Diag. #    225  SItaux    vol(   0 ): 3.513E+14  Parms: UU      U1      
 Compute Stats, Diag. #    226  SItauy    vol(   0 ): 3.508E+14  Parms: VV      U1      
 cg2d: Sum(rhs),rhsMax =   2.54484462141559E+01  2.85740111866140E-01
 Compute Stats, Diag. #    214  SIarea    vol(   0 ): 3.580E+14  Parms: SM      M1      
 Compute Stats, Diag. #    217  SIheff    vol(   0 ): 3.580E+14  Parms: SM      M1      
 Compute Stats, Diag. #    219  SIhsnow   vol(   0 ): 3.580E+14  Parms: SM      M1      
 Compute Stats, Diag. #     83  sIceLoad  vol(   0 ): 3.580E+14  Parms: SM      U1      
 Compute Stats, Diag. #    223  SIuice    vol(   0 ): 3.513E+14  Parms: UU      M1      
 Compute Stats, Diag. #    224  SIvice    vol(   0 ): 3.508E+14  Parms: VV      M1      
 Compute Stats, Diag. #    225  SItaux    vol(   0 ): 3.513E+14  Parms: UU      U1      
 Compute Stats, Diag. #    226  SItauy    vol(   0 ): 3.508E+14  Parms: VV      U1      
 cg2d: Sum(rhs),rhsMax =   2.53775926533928E+01  2.85679568404248E-01
 Compute Stats, Diag. #    214  SIarea    vol(   0 ): 3.580E+14  Parms: SM      M1      
 Compute Stats, Diag. #    217  SIheff    vol(   0 ): 3.580E+14  Parms: SM      M1      
 Compute Stats, Diag. #    219  SIhsnow   vol(   0 ): 3.580E+14  Parms: SM      M1      
 Compute Stats, Diag. #     83  sIceLoad  vol(   0 ): 3.580E+14  Parms: SM      U1      
 Compute Stats, Diag. #    223  SIuice    vol(   0 ): 3.513E+14  Parms: UU      M1      
 Compute Stats, Diag. #    224  SIvice    vol(   0 ): 3.508E+14  Parms: VV      M1      
 Compute Stats, Diag. #    225  SItaux    vol(   0 ): 3.513E+14  Parms: UU      U1      
 Compute Stats, Diag. #    226  SItauy    vol(   0 ): 3.508E+14  Parms: VV      U1      
 cg2d: Sum(rhs),rhsMax =   2.53108334995348E+01  2.85632798556369E-01
 Computing Diagnostic #     86  oceQnet      Counter:       4   Parms: SM      U1      
 Computing Diagnostic #     87  oceQsw       Counter:       4   Parms: SM      U1      
 Computing Diagnostic #     84  oceFWflx     Counter:       4   Parms: SM      U1      
 Computing Diagnostic #     85  oceSflux     Counter:       4   Parms: SM      U1      
 Computing Diagnostic #     80  oceTAUX      Counter:       4   Parms: UU      U1      
           Vector  Mate for  oceTAUX      Diagnostic #     81  oceTAUY  exists 
 Computing Diagnostic #     81  oceTAUY      Counter:       4   Parms: VV      U1      
           Vector  Mate for  oceTAUY      Diagnostic #     80  oceTAUX  exists 
 Computing Diagnostic #     26  THETA        Counter:       4   Parms: SMR     MR      
 Computing Diagnostic #     27  SALT         Counter:       4   Parms: SMR     MR      
 Computing Diagnostic #     30  UVEL         Counter:       4   Parms: UUR     MR      
           Vector  Mate for  UVEL         Diagnostic #     31  VVEL     exists 
 Computing Diagnostic #     31  VVEL         Counter:       4   Parms: VVR     MR      
           Vector  Mate for  VVEL         Diagnostic #     30  UVEL     exists 
 Computing Diagnostic #    214  SIarea       Counter:       4   Parms: SM      M1      
 Computing Diagnostic #    217  SIheff       Counter:       4   Parms: SM      M1      
 Computing Diagnostic #    219  SIhsnow      Counter:       4   Parms: SM      M1      
 Computing Diagnostic #     83  sIceLoad     Counter:       4   Parms: SM      U1      
 Computing Diagnostic #    223  SIuice       Counter:       4   Parms: UU      M1      
           Vector  Mate for  SIuice       Diagnostic #    224  SIvice   exists 
 Computing Diagnostic #    224  SIvice       Counter:       4   Parms: VV      M1      
           Vector  Mate for  SIvice       Diagnostic #    223  SIuice   exists 
 Computing Diagnostic #    225  SItaux       Counter:       4   Parms: UU      U1      
           Vector  Mate for  SItaux       Diagnostic #    226  SItauy   exists 
 Computing Diagnostic #    226  SItauy       Counter:       4   Parms: VV      U1      
           Vector  Mate for  SItauy       Diagnostic #    225  SItaux   exists 
 Computing Diagnostic #    285  SIareaN      Counter:       4   Parms: SM      MX      
 Computing Diagnostic #    284  SIheffN      Counter:       4   Parms: SM      MX      
 Computing Diagnostic #    286  SIhsnowN     Counter:       4   Parms: SM      MX      
 Compute Stats, Diag. #    214  SIarea    vol(   0 ): 3.580E+14  Parms: SM      M1      
 Compute Stats, Diag. #    217  SIheff    vol(   0 ): 3.580E+14  Parms: SM      M1      
 Compute Stats, Diag. #    219  SIhsnow   vol(   0 ): 3.580E+14  Parms: SM      M1      
 Compute Stats, Diag. #     83  sIceLoad  vol(   0 ): 3.580E+14  Parms: SM      U1      
 Compute Stats, Diag. #    223  SIuice    vol(   0 ): 3.513E+14  Parms: UU      M1      
 Compute Stats, Diag. #    224  SIvice    vol(   0 ): 3.508E+14  Parms: VV      M1      
 Compute Stats, Diag. #    225  SItaux    vol(   0 ): 3.513E+14  Parms: UU      U1      
 Compute Stats, Diag. #    226  SItauy    vol(   0 ): 3.508E+14  Parms: VV      U1      
 cg2d: Sum(rhs),rhsMax =   2.52483239307117E+01  2.85599248121866E-01
 Compute Stats, Diag. #    214  SIarea    vol(   0 ): 3.580E+14  Parms: SM      M1      
 Compute Stats, Diag. #    217  SIheff    vol(   0 ): 3.580E+14  Parms: SM      M1      
 Compute Stats, Diag. #    219  SIhsnow   vol(   0 ): 3.580E+14  Parms: SM      M1      
 Compute Stats, Diag. #     83  sIceLoad  vol(   0 ): 3.580E+14  Parms: SM      U1      
 Compute Stats, Diag. #    223  SIuice    vol(   0 ): 3.513E+14  Parms: UU      M1      
 Compute Stats, Diag. #    224  SIvice    vol(   0 ): 3.508E+14  Parms: VV      M1      
 Compute Stats, Diag. #    225  SItaux    vol(   0 ): 3.513E+14  Parms: UU      U1      
 Compute Stats, Diag. #    226  SItauy    vol(   0 ): 3.508E+14  Parms: VV      U1      
 cg2d: Sum(rhs),rhsMax =   2.51809903456605E+01  2.85578505875057E-01
 Compute Stats, Diag. #    214  SIarea    vol(   0 ): 3.580E+14  Parms: SM      M1      
 Compute Stats, Diag. #    217  SIheff    vol(   0 ): 3.580E+14  Parms: SM      M1      
 Compute Stats, Diag. #    219  SIhsnow   vol(   0 ): 3.580E+14  Parms: SM      M1      
 Compute Stats, Diag. #     83  sIceLoad  vol(   0 ): 3.580E+14  Parms: SM      U1      
 Compute Stats, Diag. #    223  SIuice    vol(   0 ): 3.513E+14  Parms: UU      M1      
 Compute Stats, Diag. #    224  SIvice    vol(   0 ): 3.508E+14  Parms: VV      M1      
 Compute Stats, Diag. #    225  SItaux    vol(   0 ): 3.513E+14  Parms: UU      U1      
 Compute Stats, Diag. #    226  SItauy    vol(   0 ): 3.508E+14  Parms: VV      U1      
 cg2d: Sum(rhs),rhsMax =   2.51131353251145E+01  2.85570474529106E-01
 Compute Stats, Diag. #    214  SIarea    vol(   0 ): 3.580E+14  Parms: SM      M1      
 Compute Stats, Diag. #    217  SIheff    vol(   0 ): 3.580E+14  Parms: SM      M1      
 Compute Stats, Diag. #    219  SIhsnow   vol(   0 ): 3.580E+14  Parms: SM      M1      
 Compute Stats, Diag. #     83  sIceLoad  vol(   0 ): 3.580E+14  Parms: SM      U1      
 Compute Stats, Diag. #    223  SIuice    vol(   0 ): 3.513E+14  Parms: UU      M1      
 Compute Stats, Diag. #    224  SIvice    vol(   0 ): 3.508E+14  Parms: VV      M1      
 Compute Stats, Diag. #    225  SItaux    vol(   0 ): 3.513E+14  Parms: UU      U1      
 Compute Stats, Diag. #    226  SItauy    vol(   0 ): 3.508E+14  Parms: VV      U1      
 cg2d: Sum(rhs),rhsMax =   2.50483071769685E+01  2.85574298377231E-01
(PID.TID 0000.0001)      cg2d_init_res =   6.79143588837682E-02
(PID.TID 0000.0001)      cg2d_iters(min,last) =      -1      26
(PID.TID 0000.0001)      cg2d_last_res =   2.59914155761792E-05
(PID.TID 0000.0001) // =======================================================
(PID.TID 0000.0001) // Begin MONITOR dynamic field statistics
(PID.TID 0000.0001) // =======================================================
(PID.TID 0000.0001) %MON time_tsnumber                =                   368
(PID.TID 0000.0001) %MON time_secondsf                =   3.3120000000000E+05
(PID.TID 0000.0001) %MON dynstat_eta_max              =   1.0470867741422E+00
(PID.TID 0000.0001) %MON dynstat_eta_min              =  -1.8841911516910E+00
(PID.TID 0000.0001) %MON dynstat_eta_mean             =  -7.9235795499264E-04
(PID.TID 0000.0001) %MON dynstat_eta_sd               =   6.3827552452229E-01
(PID.TID 0000.0001) %MON dynstat_eta_del2             =   5.9040791213696E-05
(PID.TID 0000.0001) %MON dynstat_uvel_max             =   9.1787200049947E-01
(PID.TID 0000.0001) %MON dynstat_uvel_min             =  -5.9934621335135E-01
(PID.TID 0000.0001) %MON dynstat_uvel_mean            =   1.0007828063417E-03
(PID.TID 0000.0001) %MON dynstat_uvel_sd              =   1.9221514116030E-02
(PID.TID 0000.0001) %MON dynstat_uvel_del2            =   7.8448378922109E-06
(PID.TID 0000.0001) %MON dynstat_vvel_max             =   1.0394438782548E+00
(PID.TID 0000.0001) %MON dynstat_vvel_min             =  -8.4816728980175E-01
(PID.TID 0000.0001) %MON dynstat_vvel_mean            =   1.0610736920377E-03
(PID.TID 0000.0001) %MON dynstat_vvel_sd              =   2.0785913422795E-02
(PID.TID 0000.0001) %MON dynstat_vvel_del2            =   8.1682900772915E-06
(PID.TID 0000.0001) %MON dynstat_wvel_max             =   3.8324881987853E-04
(PID.TID 0000.0001) %MON dynstat_wvel_min             =  -8.3191452821482E-04
(PID.TID 0000.0001) %MON dynstat_wvel_mean            =   9.2529759179430E-09
(PID.TID 0000.0001) %MON dynstat_wvel_sd              =   1.9984746996323E-05
(PID.TID 0000.0001) %MON dynstat_wvel_del2            =   1.5832924705214E-08
(PID.TID 0000.0001) %MON dynstat_theta_max            =   3.2305476532566E+01
(PID.TID 0000.0001) %MON dynstat_theta_min            =  -2.0744505332442E+00
(PID.TID 0000.0001) %MON dynstat_theta_mean           =   3.5903797710611E+00
(PID.TID 0000.0001) %MON dynstat_theta_sd             =   4.4361519114388E+00
(PID.TID 0000.0001) %MON dynstat_theta_del2           =   9.6430251219612E-05
(PID.TID 0000.0001) %MON dynstat_salt_max             =   4.0711550532597E+01
(PID.TID 0000.0001) %MON dynstat_salt_min             =   1.1937268810659E+01
(PID.TID 0000.0001) %MON dynstat_salt_mean            =   3.4725578321881E+01
(PID.TID 0000.0001) %MON dynstat_salt_sd              =   3.7701141164292E-01
(PID.TID 0000.0001) %MON dynstat_salt_del2            =   3.4726314665375E-05
(PID.TID 0000.0001) %MON dynstat_sst_max              =   3.2303943156787E+01
(PID.TID 0000.0001) %MON dynstat_sst_min              =  -1.8071552552452E+00
(PID.TID 0000.0001) %MON dynstat_sst_mean             =   1.8478311207856E+01
(PID.TID 0000.0001) %MON dynstat_sst_sd               =   1.0178265236304E+01
(PID.TID 0000.0001) %MON dynstat_sst_del2             =   8.1392759161559E-04
(PID.TID 0000.0001) %MON dynstat_sss_max              =   3.9122023827793E+01
(PID.TID 0000.0001) %MON dynstat_sss_min              =   1.1937268810659E+01
(PID.TID 0000.0001) %MON dynstat_sss_mean             =   3.4699053422860E+01
(PID.TID 0000.0001) %MON dynstat_sss_sd               =   1.1530693704356E+00
(PID.TID 0000.0001) %MON dynstat_sss_del2             =   1.0520934346486E-03
(PID.TID 0000.0001) %MON forcing_qnet_max             =   7.7679022216797E+02
(PID.TID 0000.0001) %MON forcing_qnet_min             =  -9.9551306733401E+02
(PID.TID 0000.0001) %MON forcing_qnet_mean            =  -3.9299884444668E+00
(PID.TID 0000.0001) %MON forcing_qnet_sd              =   1.9321175838823E+02
(PID.TID 0000.0001) %MON forcing_qnet_del2            =   3.0750407792282E-01
(PID.TID 0000.0001) %MON forcing_qsw_max              =   0.0000000000000E+00
(PID.TID 0000.0001) %MON forcing_qsw_min              =  -1.0832130198396E+02
(PID.TID 0000.0001) %MON forcing_qsw_mean             =  -1.8998305143626E+01
(PID.TID 0000.0001) %MON forcing_qsw_sd               =   2.8684380598124E+01
(PID.TID 0000.0001) %MON forcing_qsw_del2             =   2.1239054024141E-02
(PID.TID 0000.0001) %MON forcing_empmr_max            =   1.3971625594422E-03
(PID.TID 0000.0001) %MON forcing_empmr_min            =  -6.1673291027546E-02
(PID.TID 0000.0001) %MON forcing_empmr_mean           =  -2.3446581035250E-06
(PID.TID 0000.0001) %MON forcing_empmr_sd             =   2.5819114378935E-04
(PID.TID 0000.0001) %MON forcing_empmr_del2           =   2.6437054481985E-06
(PID.TID 0000.0001) %MON forcing_fu_max               =   8.2335445284843E-01
(PID.TID 0000.0001) %MON forcing_fu_min               =  -5.0402779572985E-01
(PID.TID 0000.0001) %MON forcing_fu_mean              =   6.7887698816465E-03
(PID.TID 0000.0001) %MON forcing_fu_sd                =   9.0036960668321E-02
(PID.TID 0000.0001) %MON forcing_fu_del2              =   1.1604802598012E-04
(PID.TID 0000.0001) %MON forcing_fv_max               =   8.0241838097572E-01
(PID.TID 0000.0001) %MON forcing_fv_min               =  -8.2504607516981E-01
(PID.TID 0000.0001) %MON forcing_fv_mean              =  -2.4433246127726E-03
(PID.TID 0000.0001) %MON forcing_fv_sd                =   9.6705736475582E-02
(PID.TID 0000.0001) %MON forcing_fv_del2              =   1.1494607193132E-04
(PID.TID 0000.0001) %MON trAdv_CFL_u_max              =   1.0593994782640E-02
(PID.TID 0000.0001) %MON trAdv_CFL_v_max              =   1.7955991382109E-02
(PID.TID 0000.0001) %MON trAdv_CFL_w_max              =   2.3088053208895E-02
(PID.TID 0000.0001) %MON advcfl_uvel_max              =   9.9161324308176E-03
(PID.TID 0000.0001) %MON advcfl_vvel_max              =   1.8451068672749E-02
(PID.TID 0000.0001) %MON advcfl_wvel_max              =   2.1917128920707E-02
(PID.TID 0000.0001) %MON advcfl_W_hf_max              =   2.2151065338196E-02
(PID.TID 0000.0001) %MON pe_b_mean                    =   5.3588971540501E-04
(PID.TID 0000.0001) %MON ke_max                       =   5.2195317585024E-01
(PID.TID 0000.0001) %MON ke_mean                      =   3.8751666396915E-04
(PID.TID 0000.0001) %MON ke_vol                       =   1.3349975925300E+18
(PID.TID 0000.0001) %MON vort_r_min                   =  -1.8801345381216E-05
(PID.TID 0000.0001) %MON vort_r_max                   =   2.8867490848284E-05
(PID.TID 0000.0001) %MON vort_a_mean                  =  -1.9727864647440E-05
(PID.TID 0000.0001) %MON vort_a_sd                    =   7.4542945085015E-05
(PID.TID 0000.0001) %MON vort_p_mean                  =  -2.1760536654116E-05
(PID.TID 0000.0001) %MON vort_p_sd                    =   9.7246956784218E-05
(PID.TID 0000.0001) %MON surfExpan_theta_mean         =  -2.3946276565361E-07
(PID.TID 0000.0001) %MON surfExpan_salt_mean          =  -2.3597091335113E-09
(PID.TID 0000.0001) // =======================================================
(PID.TID 0000.0001) // End MONITOR dynamic field statistics
(PID.TID 0000.0001) // =======================================================
(PID.TID 0000.0001) // =======================================================
(PID.TID 0000.0001) // Begin MONITOR SEAICE statistics
(PID.TID 0000.0001) // =======================================================
(PID.TID 0000.0001) %MON seaice_tsnumber              =                   368
(PID.TID 0000.0001) %MON seaice_time_sec              =   3.3120000000000E+05
(PID.TID 0000.0001) %MON seaice_uice_max              =   4.0000000000000E-01
(PID.TID 0000.0001) %MON seaice_uice_min              =  -4.0000000000000E-01
(PID.TID 0000.0001) %MON seaice_uice_mean             =  -8.3054598624025E-03
(PID.TID 0000.0001) %MON seaice_uice_sd               =   1.9802383574176E-01
(PID.TID 0000.0001) %MON seaice_uice_del2             =   2.2931571122150E-04
(PID.TID 0000.0001) %MON seaice_vice_max              =   4.0000000000000E-01
(PID.TID 0000.0001) %MON seaice_vice_min              =  -4.0000000000000E-01
(PID.TID 0000.0001) %MON seaice_vice_mean             =  -2.1960776359499E-02
(PID.TID 0000.0001) %MON seaice_vice_sd               =   2.1302038025672E-01
(PID.TID 0000.0001) %MON seaice_vice_del2             =   2.3932563818061E-04
(PID.TID 0000.0001) %MON seaice_area_max              =   1.0000000000000E+00
(PID.TID 0000.0001) %MON seaice_area_min              =   0.0000000000000E+00
(PID.TID 0000.0001) %MON seaice_area_mean             =   6.7709704353522E-02
(PID.TID 0000.0001) %MON seaice_area_sd               =   2.3315144179553E-01
(PID.TID 0000.0001) %MON seaice_area_del2             =   4.2267217556737E-04
(PID.TID 0000.0001) %MON seaice_heff_max              =   2.5125322052976E+01
(PID.TID 0000.0001) %MON seaice_heff_min              =   0.0000000000000E+00
(PID.TID 0000.0001) %MON seaice_heff_mean             =   2.1457856784664E-01
(PID.TID 0000.0001) %MON seaice_heff_sd               =   1.0686186809381E+00
(PID.TID 0000.0001) %MON seaice_heff_del2             =   3.8796413831487E-03
(PID.TID 0000.0001) %MON seaice_hsnow_max             =   8.2985905940004E+00
(PID.TID 0000.0001) %MON seaice_hsnow_min             =   0.0000000000000E+00
(PID.TID 0000.0001) %MON seaice_hsnow_mean            =   2.4318730650432E-02
(PID.TID 0000.0001) %MON seaice_hsnow_sd              =   1.5690916693290E-01
(PID.TID 0000.0001) %MON seaice_hsnow_del2            =   1.2466366181588E-03
(PID.TID 0000.0001) // =======================================================
(PID.TID 0000.0001) // End MONITOR SEAICE statistics
(PID.TID 0000.0001) // =======================================================
 Computing Diagnostic #     86  oceQnet      Counter:       4   Parms: SM      U1      
 Computing Diagnostic #     87  oceQsw       Counter:       4   Parms: SM      U1      
 Computing Diagnostic #     84  oceFWflx     Counter:       4   Parms: SM      U1      
 Computing Diagnostic #     85  oceSflux     Counter:       4   Parms: SM      U1      
 Computing Diagnostic #     80  oceTAUX      Counter:       4   Parms: UU      U1      
           Vector  Mate for  oceTAUX      Diagnostic #     81  oceTAUY  exists 
 Computing Diagnostic #     81  oceTAUY      Counter:       4   Parms: VV      U1      
           Vector  Mate for  oceTAUY      Diagnostic #     80  oceTAUX  exists 
 Computing Diagnostic #     26  THETA        Counter:       4   Parms: SMR     MR      
 Computing Diagnostic #     27  SALT         Counter:       4   Parms: SMR     MR      
 Computing Diagnostic #     30  UVEL         Counter:       4   Parms: UUR     MR      
           Vector  Mate for  UVEL         Diagnostic #     31  VVEL     exists 
 Computing Diagnostic #     31  VVEL         Counter:       4   Parms: VVR     MR      
           Vector  Mate for  VVEL         Diagnostic #     30  UVEL     exists 
 Computing Diagnostic #    214  SIarea       Counter:       4   Parms: SM      M1      
 Computing Diagnostic #    217  SIheff       Counter:       4   Parms: SM      M1      
 Computing Diagnostic #    219  SIhsnow      Counter:       4   Parms: SM      M1      
 Computing Diagnostic #     83  sIceLoad     Counter:       4   Parms: SM      U1      
 Computing Diagnostic #    223  SIuice       Counter:       4   Parms: UU      M1      
           Vector  Mate for  SIuice       Diagnostic #    224  SIvice   exists 
 Computing Diagnostic #    224  SIvice       Counter:       4   Parms: VV      M1      
           Vector  Mate for  SIvice       Diagnostic #    223  SIuice   exists 
 Computing Diagnostic #    225  SItaux       Counter:       4   Parms: UU      U1      
           Vector  Mate for  SItaux       Diagnostic #    226  SItauy   exists 
 Computing Diagnostic #    226  SItauy       Counter:       4   Parms: VV      U1      
           Vector  Mate for  SItauy       Diagnostic #    225  SItaux   exists 
 Computing Diagnostic #    285  SIareaN      Counter:       4   Parms: SM      MX      
 Computing Diagnostic #    284  SIheffN      Counter:       4   Parms: SM      MX      
 Computing Diagnostic #    286  SIhsnowN     Counter:       4   Parms: SM      MX      
 Compute Stats, Diag. #    214  SIarea    vol(   0 ): 3.580E+14  Parms: SM      M1      
 Compute Stats, Diag. #    217  SIheff    vol(   0 ): 3.580E+14  Parms: SM      M1      
 Compute Stats, Diag. #    219  SIhsnow   vol(   0 ): 3.580E+14  Parms: SM      M1      
 Compute Stats, Diag. #     83  sIceLoad  vol(   0 ): 3.580E+14  Parms: SM      U1      
 Compute Stats, Diag. #    223  SIuice    vol(   0 ): 3.513E+14  Parms: UU      M1      
 Compute Stats, Diag. #    224  SIvice    vol(   0 ): 3.508E+14  Parms: VV      M1      
 Compute Stats, Diag. #    225  SItaux    vol(   0 ): 3.513E+14  Parms: UU      U1      
 Compute Stats, Diag. #    226  SItauy    vol(   0 ): 3.508E+14  Parms: VV      U1      
 cg2d: Sum(rhs),rhsMax =   2.49804553576631E+01  2.85589511991859E-01
 Compute Stats, Diag. #    214  SIarea    vol(   0 ): 3.580E+14  Parms: SM      M1      
 Compute Stats, Diag. #    217  SIheff    vol(   0 ): 3.580E+14  Parms: SM      M1      
 Compute Stats, Diag. #    219  SIhsnow   vol(   0 ): 3.580E+14  Parms: SM      M1      
 Compute Stats, Diag. #     83  sIceLoad  vol(   0 ): 3.580E+14  Parms: SM      U1      
 Compute Stats, Diag. #    223  SIuice    vol(   0 ): 3.513E+14  Parms: UU      M1      
 Compute Stats, Diag. #    224  SIvice    vol(   0 ): 3.508E+14  Parms: VV      M1      
 Compute Stats, Diag. #    225  SItaux    vol(   0 ): 3.513E+14  Parms: UU      U1      
 Compute Stats, Diag. #    226  SItauy    vol(   0 ): 3.508E+14  Parms: VV      U1      
 cg2d: Sum(rhs),rhsMax =   2.49224657872010E+01  2.85614979825906E-01
 Compute Stats, Diag. #    214  SIarea    vol(   0 ): 3.580E+14  Parms: SM      M1      
 Compute Stats, Diag. #    217  SIheff    vol(   0 ): 3.580E+14  Parms: SM      M1      
 Compute Stats, Diag. #    219  SIhsnow   vol(   0 ): 3.580E+14  Parms: SM      M1      
 Compute Stats, Diag. #     83  sIceLoad  vol(   0 ): 3.580E+14  Parms: SM      U1      
 Compute Stats, Diag. #    223  SIuice    vol(   0 ): 3.513E+14  Parms: UU      M1      
 Compute Stats, Diag. #    224  SIvice    vol(   0 ): 3.508E+14  Parms: VV      M1      
 Compute Stats, Diag. #    225  SItaux    vol(   0 ): 3.513E+14  Parms: UU      U1      
 Compute Stats, Diag. #    226  SItauy    vol(   0 ): 3.508E+14  Parms: VV      U1      
 cg2d: Sum(rhs),rhsMax =   2.48701721033180E+01  2.85649642438449E-01
 Compute Stats, Diag. #    214  SIarea    vol(   0 ): 3.580E+14  Parms: SM      M1      
 Compute Stats, Diag. #    217  SIheff    vol(   0 ): 3.580E+14  Parms: SM      M1      
 Compute Stats, Diag. #    219  SIhsnow   vol(   0 ): 3.580E+14  Parms: SM      M1      
 Compute Stats, Diag. #     83  sIceLoad  vol(   0 ): 3.580E+14  Parms: SM      U1      
 Compute Stats, Diag. #    223  SIuice    vol(   0 ): 3.513E+14  Parms: UU      M1      
 Compute Stats, Diag. #    224  SIvice    vol(   0 ): 3.508E+14  Parms: VV      M1      
 Compute Stats, Diag. #    225  SItaux    vol(   0 ): 3.513E+14  Parms: UU      U1      
 Compute Stats, Diag. #    226  SItauy    vol(   0 ): 3.508E+14  Parms: VV      U1      
 cg2d: Sum(rhs),rhsMax =   2.48153865664543E+01  2.85692713409149E-01
 Computing Diagnostic #     86  oceQnet      Counter:       4   Parms: SM      U1      
 Computing Diagnostic #     87  oceQsw       Counter:       4   Parms: SM      U1      
 Computing Diagnostic #     84  oceFWflx     Counter:       4   Parms: SM      U1      
 Computing Diagnostic #     85  oceSflux     Counter:       4   Parms: SM      U1      
 Computing Diagnostic #     80  oceTAUX      Counter:       4   Parms: UU      U1      
           Vector  Mate for  oceTAUX      Diagnostic #     81  oceTAUY  exists 
 Computing Diagnostic #     81  oceTAUY      Counter:       4   Parms: VV      U1      
           Vector  Mate for  oceTAUY      Diagnostic #     80  oceTAUX  exists 
 Computing Diagnostic #     26  THETA        Counter:       4   Parms: SMR     MR      
 Computing Diagnostic #     27  SALT         Counter:       4   Parms: SMR     MR      
 Computing Diagnostic #     30  UVEL         Counter:       4   Parms: UUR     MR      
           Vector  Mate for  UVEL         Diagnostic #     31  VVEL     exists 
 Computing Diagnostic #     31  VVEL         Counter:       4   Parms: VVR     MR      
           Vector  Mate for  VVEL         Diagnostic #     30  UVEL     exists 
 Computing Diagnostic #    214  SIarea       Counter:       4   Parms: SM      M1      
 Computing Diagnostic #    217  SIheff       Counter:       4   Parms: SM      M1      
 Computing Diagnostic #    219  SIhsnow      Counter:       4   Parms: SM      M1      
 Computing Diagnostic #     83  sIceLoad     Counter:       4   Parms: SM      U1      
 Computing Diagnostic #    223  SIuice       Counter:       4   Parms: UU      M1      
           Vector  Mate for  SIuice       Diagnostic #    224  SIvice   exists 
 Computing Diagnostic #    224  SIvice       Counter:       4   Parms: VV      M1      
           Vector  Mate for  SIvice       Diagnostic #    223  SIuice   exists 
 Computing Diagnostic #    225  SItaux       Counter:       4   Parms: UU      U1      
           Vector  Mate for  SItaux       Diagnostic #    226  SItauy   exists 
 Computing Diagnostic #    226  SItauy       Counter:       4   Parms: VV      U1      
           Vector  Mate for  SItauy       Diagnostic #    225  SItaux   exists 
 Computing Diagnostic #    285  SIareaN      Counter:       4   Parms: SM      MX      
 Computing Diagnostic #    284  SIheffN      Counter:       4   Parms: SM      MX      
 Computing Diagnostic #    286  SIhsnowN     Counter:       4   Parms: SM      MX      
 Compute Stats, Diag. #    214  SIarea    vol(   0 ): 3.580E+14  Parms: SM      M1      
 Compute Stats, Diag. #    217  SIheff    vol(   0 ): 3.580E+14  Parms: SM      M1      
 Compute Stats, Diag. #    219  SIhsnow   vol(   0 ): 3.580E+14  Parms: SM      M1      
 Compute Stats, Diag. #     83  sIceLoad  vol(   0 ): 3.580E+14  Parms: SM      U1      
 Compute Stats, Diag. #    223  SIuice    vol(   0 ): 3.513E+14  Parms: UU      M1      
 Compute Stats, Diag. #    224  SIvice    vol(   0 ): 3.508E+14  Parms: VV      M1      
 Compute Stats, Diag. #    225  SItaux    vol(   0 ): 3.513E+14  Parms: UU      U1      
 Compute Stats, Diag. #    226  SItauy    vol(   0 ): 3.508E+14  Parms: VV      U1      
 cg2d: Sum(rhs),rhsMax =   2.47605058663311E+01  2.85743247612465E-01
 Compute Stats, Diag. #    214  SIarea    vol(   0 ): 3.580E+14  Parms: SM      M1      
 Compute Stats, Diag. #    217  SIheff    vol(   0 ): 3.580E+14  Parms: SM      M1      
 Compute Stats, Diag. #    219  SIhsnow   vol(   0 ): 3.580E+14  Parms: SM      M1      
 Compute Stats, Diag. #     83  sIceLoad  vol(   0 ): 3.580E+14  Parms: SM      U1      
 Compute Stats, Diag. #    223  SIuice    vol(   0 ): 3.513E+14  Parms: UU      M1      
 Compute Stats, Diag. #    224  SIvice    vol(   0 ): 3.508E+14  Parms: VV      M1      
 Compute Stats, Diag. #    225  SItaux    vol(   0 ): 3.513E+14  Parms: UU      U1      
 Compute Stats, Diag. #    226  SItauy    vol(   0 ): 3.508E+14  Parms: VV      U1      
 cg2d: Sum(rhs),rhsMax =   2.47059613997845E+01  2.85800316476286E-01
 Compute Stats, Diag. #    214  SIarea    vol(   0 ): 3.580E+14  Parms: SM      M1      
 Compute Stats, Diag. #    217  SIheff    vol(   0 ): 3.580E+14  Parms: SM      M1      
 Compute Stats, Diag. #    219  SIhsnow   vol(   0 ): 3.580E+14  Parms: SM      M1      
 Compute Stats, Diag. #     83  sIceLoad  vol(   0 ): 3.580E+14  Parms: SM      U1      
 Compute Stats, Diag. #    223  SIuice    vol(   0 ): 3.513E+14  Parms: UU      M1      
 Compute Stats, Diag. #    224  SIvice    vol(   0 ): 3.508E+14  Parms: VV      M1      
 Compute Stats, Diag. #    225  SItaux    vol(   0 ): 3.513E+14  Parms: UU      U1      
 Compute Stats, Diag. #    226  SItauy    vol(   0 ): 3.508E+14  Parms: VV      U1      
 cg2d: Sum(rhs),rhsMax =   2.46563013558059E+01  2.85863515569253E-01
 Compute Stats, Diag. #    214  SIarea    vol(   0 ): 3.580E+14  Parms: SM      M1      
 Compute Stats, Diag. #    217  SIheff    vol(   0 ): 3.580E+14  Parms: SM      M1      
 Compute Stats, Diag. #    219  SIhsnow   vol(   0 ): 3.580E+14  Parms: SM      M1      
 Compute Stats, Diag. #     83  sIceLoad  vol(   0 ): 3.580E+14  Parms: SM      U1      
 Compute Stats, Diag. #    223  SIuice    vol(   0 ): 3.513E+14  Parms: UU      M1      
 Compute Stats, Diag. #    224  SIvice    vol(   0 ): 3.508E+14  Parms: VV      M1      
 Compute Stats, Diag. #    225  SItaux    vol(   0 ): 3.513E+14  Parms: UU      U1      
 Compute Stats, Diag. #    226  SItauy    vol(   0 ): 3.508E+14  Parms: VV      U1      
 cg2d: Sum(rhs),rhsMax =   2.46036585007040E+01  2.85931768808853E-01
(PID.TID 0000.0001)      cg2d_init_res =   6.82036330700010E-02
(PID.TID 0000.0001)      cg2d_iters(min,last) =      -1      27
(PID.TID 0000.0001)      cg2d_last_res =   2.18542694855731E-05
(PID.TID 0000.0001) // =======================================================
(PID.TID 0000.0001) // Begin MONITOR dynamic field statistics
(PID.TID 0000.0001) // =======================================================
(PID.TID 0000.0001) %MON time_tsnumber                =                   376
(PID.TID 0000.0001) %MON time_secondsf                =   3.3840000000000E+05
(PID.TID 0000.0001) %MON dynstat_eta_max              =   1.0462607373531E+00
(PID.TID 0000.0001) %MON dynstat_eta_min              =  -1.8827751579770E+00
(PID.TID 0000.0001) %MON dynstat_eta_mean             =  -7.7829229724871E-04
(PID.TID 0000.0001) %MON dynstat_eta_sd               =   6.3781266062762E-01
(PID.TID 0000.0001) %MON dynstat_eta_del2             =   5.8697582510743E-05
(PID.TID 0000.0001) %MON dynstat_uvel_max             =   9.1272081859704E-01
(PID.TID 0000.0001) %MON dynstat_uvel_min             =  -5.8389846533717E-01
(PID.TID 0000.0001) %MON dynstat_uvel_mean            =   1.0263013804848E-03
(PID.TID 0000.0001) %MON dynstat_uvel_sd              =   1.9178946592258E-02
(PID.TID 0000.0001) %MON dynstat_uvel_del2            =   7.8109323654560E-06
(PID.TID 0000.0001) %MON dynstat_vvel_max             =   1.0117691295562E+00
(PID.TID 0000.0001) %MON dynstat_vvel_min             =  -8.4601922089836E-01
(PID.TID 0000.0001) %MON dynstat_vvel_mean            =   1.1150529407304E-03
(PID.TID 0000.0001) %MON dynstat_vvel_sd              =   2.0721009759479E-02
(PID.TID 0000.0001) %MON dynstat_vvel_del2            =   8.1199284215500E-06
(PID.TID 0000.0001) %MON dynstat_wvel_max             =   3.7892911915819E-04
(PID.TID 0000.0001) %MON dynstat_wvel_min             =  -8.3515288203253E-04
(PID.TID 0000.0001) %MON dynstat_wvel_mean            =   1.2571117544993E-08
(PID.TID 0000.0001) %MON dynstat_wvel_sd              =   1.9783402717483E-05
(PID.TID 0000.0001) %MON dynstat_wvel_del2            =   1.5663592252739E-08
(PID.TID 0000.0001) %MON dynstat_theta_max            =   3.2295066972389E+01
(PID.TID 0000.0001) %MON dynstat_theta_min            =  -2.0766462458571E+00
(PID.TID 0000.0001) %MON dynstat_theta_mean           =   3.5903830098470E+00
(PID.TID 0000.0001) %MON dynstat_theta_sd             =   4.4361769412440E+00
(PID.TID 0000.0001) %MON dynstat_theta_del2           =   9.6315938640219E-05
(PID.TID 0000.0001) %MON dynstat_salt_max             =   4.0711551965466E+01
(PID.TID 0000.0001) %MON dynstat_salt_min             =   1.1542630815248E+01
(PID.TID 0000.0001) %MON dynstat_salt_mean            =   3.4725578136524E+01
(PID.TID 0000.0001) %MON dynstat_salt_sd              =   3.7701151182173E-01
(PID.TID 0000.0001) %MON dynstat_salt_del2            =   3.4398266923119E-05
(PID.TID 0000.0001) %MON dynstat_sst_max              =   3.2291221092237E+01
(PID.TID 0000.0001) %MON dynstat_sst_min              =  -1.8065519124525E+00
(PID.TID 0000.0001) %MON dynstat_sst_mean             =   1.8480264360097E+01
(PID.TID 0000.0001) %MON dynstat_sst_sd               =   1.0179873174912E+01
(PID.TID 0000.0001) %MON dynstat_sst_del2             =   8.1361142679447E-04
(PID.TID 0000.0001) %MON dynstat_sss_max              =   3.9120910138457E+01
(PID.TID 0000.0001) %MON dynstat_sss_min              =   1.1542630815248E+01
(PID.TID 0000.0001) %MON dynstat_sss_mean             =   3.4699176961078E+01
(PID.TID 0000.0001) %MON dynstat_sss_sd               =   1.1534099006067E+00
(PID.TID 0000.0001) %MON dynstat_sss_del2             =   1.0343459812667E-03
(PID.TID 0000.0001) %MON forcing_qnet_max             =   1.5173125000000E+03
(PID.TID 0000.0001) %MON forcing_qnet_min             =  -2.1096436188630E+03
(PID.TID 0000.0001) %MON forcing_qnet_mean            =  -9.4014463752577E+00
(PID.TID 0000.0001) %MON forcing_qnet_sd              =   1.9197021548056E+02
(PID.TID 0000.0001) %MON forcing_qnet_del2            =   3.1774536210967E-01
(PID.TID 0000.0001) %MON forcing_qsw_max              =   0.0000000000000E+00
(PID.TID 0000.0001) %MON forcing_qsw_min              =  -1.0900543834203E+02
(PID.TID 0000.0001) %MON forcing_qsw_mean             =  -2.0101432573911E+01
(PID.TID 0000.0001) %MON forcing_qsw_sd               =   2.9442065216750E+01
(PID.TID 0000.0001) %MON forcing_qsw_del2             =   2.0951666428465E-02
(PID.TID 0000.0001) %MON forcing_empmr_max            =   1.0435655713081E-03
(PID.TID 0000.0001) %MON forcing_empmr_min            =  -7.4962906539440E-02
(PID.TID 0000.0001) %MON forcing_empmr_mean           =  -1.9039491382920E-06
(PID.TID 0000.0001) %MON forcing_empmr_sd             =   3.0899532643037E-04
(PID.TID 0000.0001) %MON forcing_empmr_del2           =   3.2095989423172E-06
(PID.TID 0000.0001) %MON forcing_fu_max               =   8.1143456697464E-01
(PID.TID 0000.0001) %MON forcing_fu_min               =  -4.7491997480393E-01
(PID.TID 0000.0001) %MON forcing_fu_mean              =   7.3295984614660E-03
(PID.TID 0000.0001) %MON forcing_fu_sd                =   9.0720842188164E-02
(PID.TID 0000.0001) %MON forcing_fu_del2              =   1.1634371827456E-04
(PID.TID 0000.0001) %MON forcing_fv_max               =   8.0485087633133E-01
(PID.TID 0000.0001) %MON forcing_fv_min               =  -7.9411426826797E-01
(PID.TID 0000.0001) %MON forcing_fv_mean              =  -2.5450992197472E-03
(PID.TID 0000.0001) %MON forcing_fv_sd                =   9.6153239271593E-02
(PID.TID 0000.0001) %MON forcing_fv_del2              =   1.1423536944068E-04
(PID.TID 0000.0001) %MON trAdv_CFL_u_max              =   1.0610522648587E-02
(PID.TID 0000.0001) %MON trAdv_CFL_v_max              =   1.7505655910127E-02
(PID.TID 0000.0001) %MON trAdv_CFL_w_max              =   2.3114946318683E-02
(PID.TID 0000.0001) %MON advcfl_uvel_max              =   9.6605507458846E-03
(PID.TID 0000.0001) %MON advcfl_vvel_max              =   1.7959816860678E-02
(PID.TID 0000.0001) %MON advcfl_wvel_max              =   2.1936181428820E-02
(PID.TID 0000.0001) %MON advcfl_W_hf_max              =   2.2170261825028E-02
(PID.TID 0000.0001) %MON pe_b_mean                    =   5.3511273553650E-04
(PID.TID 0000.0001) %MON ke_max                       =   4.9192261206600E-01
(PID.TID 0000.0001) %MON ke_mean                      =   3.8551096965253E-04
(PID.TID 0000.0001) %MON ke_vol                       =   1.3349975977037E+18
(PID.TID 0000.0001) %MON vort_r_min                   =  -1.8311689293438E-05
(PID.TID 0000.0001) %MON vort_r_max                   =   2.8094587835823E-05
(PID.TID 0000.0001) %MON vort_a_mean                  =  -1.9727864647440E-05
(PID.TID 0000.0001) %MON vort_a_sd                    =   7.4542944815120E-05
(PID.TID 0000.0001) %MON vort_p_mean                  =  -2.1760536612246E-05
(PID.TID 0000.0001) %MON vort_p_sd                    =   9.7246889693161E-05
(PID.TID 0000.0001) %MON surfExpan_theta_mean         =  -3.4946391013553E-08
(PID.TID 0000.0001) %MON surfExpan_salt_mean          =   1.8481321584579E-08
(PID.TID 0000.0001) // =======================================================
(PID.TID 0000.0001) // End MONITOR dynamic field statistics
(PID.TID 0000.0001) // =======================================================
(PID.TID 0000.0001) // =======================================================
(PID.TID 0000.0001) // Begin MONITOR SEAICE statistics
(PID.TID 0000.0001) // =======================================================
(PID.TID 0000.0001) %MON seaice_tsnumber              =                   376
(PID.TID 0000.0001) %MON seaice_time_sec              =   3.3840000000000E+05
(PID.TID 0000.0001) %MON seaice_uice_max              =   4.0000000000000E-01
(PID.TID 0000.0001) %MON seaice_uice_min              =  -4.0000000000000E-01
(PID.TID 0000.0001) %MON seaice_uice_mean             =  -8.3054598624025E-03
(PID.TID 0000.0001) %MON seaice_uice_sd               =   1.9802383574176E-01
(PID.TID 0000.0001) %MON seaice_uice_del2             =   2.2931571122150E-04
(PID.TID 0000.0001) %MON seaice_vice_max              =   4.0000000000000E-01
(PID.TID 0000.0001) %MON seaice_vice_min              =  -4.0000000000000E-01
(PID.TID 0000.0001) %MON seaice_vice_mean             =  -2.1960776359499E-02
(PID.TID 0000.0001) %MON seaice_vice_sd               =   2.1302038025672E-01
(PID.TID 0000.0001) %MON seaice_vice_del2             =   2.3932563818061E-04
(PID.TID 0000.0001) %MON seaice_area_max              =   1.0000000000000E+00
(PID.TID 0000.0001) %MON seaice_area_min              =   0.0000000000000E+00
(PID.TID 0000.0001) %MON seaice_area_mean             =   6.7666437140690E-02
(PID.TID 0000.0001) %MON seaice_area_sd               =   2.3307343753555E-01
(PID.TID 0000.0001) %MON seaice_area_del2             =   4.2183289548557E-04
(PID.TID 0000.0001) %MON seaice_heff_max              =   2.5122182682622E+01
(PID.TID 0000.0001) %MON seaice_heff_min              =   0.0000000000000E+00
(PID.TID 0000.0001) %MON seaice_heff_mean             =   2.1452868636970E-01
(PID.TID 0000.0001) %MON seaice_heff_sd               =   1.0685573158249E+00
(PID.TID 0000.0001) %MON seaice_heff_del2             =   3.8787134635274E-03
(PID.TID 0000.0001) %MON seaice_hsnow_max             =   8.2975596329488E+00
(PID.TID 0000.0001) %MON seaice_hsnow_min             =   0.0000000000000E+00
(PID.TID 0000.0001) %MON seaice_hsnow_mean            =   2.4312955874215E-02
(PID.TID 0000.0001) %MON seaice_hsnow_sd              =   1.5688374265858E-01
(PID.TID 0000.0001) %MON seaice_hsnow_del2            =   1.2464364581116E-03
(PID.TID 0000.0001) // =======================================================
(PID.TID 0000.0001) // End MONITOR SEAICE statistics
(PID.TID 0000.0001) // =======================================================
 Computing Diagnostic #     86  oceQnet      Counter:       4   Parms: SM      U1      
 Computing Diagnostic #     87  oceQsw       Counter:       4   Parms: SM      U1      
 Computing Diagnostic #     84  oceFWflx     Counter:       4   Parms: SM      U1      
 Computing Diagnostic #     85  oceSflux     Counter:       4   Parms: SM      U1      
 Computing Diagnostic #     80  oceTAUX      Counter:       4   Parms: UU      U1      
           Vector  Mate for  oceTAUX      Diagnostic #     81  oceTAUY  exists 
 Computing Diagnostic #     81  oceTAUY      Counter:       4   Parms: VV      U1      
           Vector  Mate for  oceTAUY      Diagnostic #     80  oceTAUX  exists 
 Computing Diagnostic #     26  THETA        Counter:       4   Parms: SMR     MR      
 Computing Diagnostic #     27  SALT         Counter:       4   Parms: SMR     MR      
 Computing Diagnostic #     30  UVEL         Counter:       4   Parms: UUR     MR      
           Vector  Mate for  UVEL         Diagnostic #     31  VVEL     exists 
 Computing Diagnostic #     31  VVEL         Counter:       4   Parms: VVR     MR      
           Vector  Mate for  VVEL         Diagnostic #     30  UVEL     exists 
 Computing Diagnostic #    214  SIarea       Counter:       4   Parms: SM      M1      
 Computing Diagnostic #    217  SIheff       Counter:       4   Parms: SM      M1      
 Computing Diagnostic #    219  SIhsnow      Counter:       4   Parms: SM      M1      
 Computing Diagnostic #     83  sIceLoad     Counter:       4   Parms: SM      U1      
 Computing Diagnostic #    223  SIuice       Counter:       4   Parms: UU      M1      
           Vector  Mate for  SIuice       Diagnostic #    224  SIvice   exists 
 Computing Diagnostic #    224  SIvice       Counter:       4   Parms: VV      M1      
           Vector  Mate for  SIvice       Diagnostic #    223  SIuice   exists 
 Computing Diagnostic #    225  SItaux       Counter:       4   Parms: UU      U1      
           Vector  Mate for  SItaux       Diagnostic #    226  SItauy   exists 
 Computing Diagnostic #    226  SItauy       Counter:       4   Parms: VV      U1      
           Vector  Mate for  SItauy       Diagnostic #    225  SItaux   exists 
 Computing Diagnostic #    285  SIareaN      Counter:       4   Parms: SM      MX      
 Computing Diagnostic #    284  SIheffN      Counter:       4   Parms: SM      MX      
 Computing Diagnostic #    286  SIhsnowN     Counter:       4   Parms: SM      MX      
 Compute Stats, Diag. #    214  SIarea    vol(   0 ): 3.580E+14  Parms: SM      M1      
 Compute Stats, Diag. #    217  SIheff    vol(   0 ): 3.580E+14  Parms: SM      M1      
 Compute Stats, Diag. #    219  SIhsnow   vol(   0 ): 3.580E+14  Parms: SM      M1      
 Compute Stats, Diag. #     83  sIceLoad  vol(   0 ): 3.580E+14  Parms: SM      U1      
 Compute Stats, Diag. #    223  SIuice    vol(   0 ): 3.513E+14  Parms: UU      M1      
 Compute Stats, Diag. #    224  SIvice    vol(   0 ): 3.508E+14  Parms: VV      M1      
 Compute Stats, Diag. #    225  SItaux    vol(   0 ): 3.513E+14  Parms: UU      U1      
 Compute Stats, Diag. #    226  SItauy    vol(   0 ): 3.508E+14  Parms: VV      U1      
 cg2d: Sum(rhs),rhsMax =   2.45481611940810E+01  2.86004768008871E-01
 Compute Stats, Diag. #    214  SIarea    vol(   0 ): 3.580E+14  Parms: SM      M1      
 Compute Stats, Diag. #    217  SIheff    vol(   0 ): 3.580E+14  Parms: SM      M1      
 Compute Stats, Diag. #    219  SIhsnow   vol(   0 ): 3.580E+14  Parms: SM      M1      
 Compute Stats, Diag. #     83  sIceLoad  vol(   0 ): 3.580E+14  Parms: SM      U1      
 Compute Stats, Diag. #    223  SIuice    vol(   0 ): 3.513E+14  Parms: UU      M1      
 Compute Stats, Diag. #    224  SIvice    vol(   0 ): 3.508E+14  Parms: VV      M1      
 Compute Stats, Diag. #    225  SItaux    vol(   0 ): 3.513E+14  Parms: UU      U1      
 Compute Stats, Diag. #    226  SItauy    vol(   0 ): 3.508E+14  Parms: VV      U1      
 cg2d: Sum(rhs),rhsMax =   2.44973502551693E+01  2.86081331307591E-01
 Compute Stats, Diag. #    214  SIarea    vol(   0 ): 3.580E+14  Parms: SM      M1      
 Compute Stats, Diag. #    217  SIheff    vol(   0 ): 3.580E+14  Parms: SM      M1      
 Compute Stats, Diag. #    219  SIhsnow   vol(   0 ): 3.580E+14  Parms: SM      M1      
 Compute Stats, Diag. #     83  sIceLoad  vol(   0 ): 3.580E+14  Parms: SM      U1      
 Compute Stats, Diag. #    223  SIuice    vol(   0 ): 3.513E+14  Parms: UU      M1      
 Compute Stats, Diag. #    224  SIvice    vol(   0 ): 3.508E+14  Parms: VV      M1      
 Compute Stats, Diag. #    225  SItaux    vol(   0 ): 3.513E+14  Parms: UU      U1      
 Compute Stats, Diag. #    226  SItauy    vol(   0 ): 3.508E+14  Parms: VV      U1      
 cg2d: Sum(rhs),rhsMax =   2.44341186284559E+01  2.86160028400346E-01
 Compute Stats, Diag. #    214  SIarea    vol(   0 ): 3.580E+14  Parms: SM      M1      
 Compute Stats, Diag. #    217  SIheff    vol(   0 ): 3.580E+14  Parms: SM      M1      
 Compute Stats, Diag. #    219  SIhsnow   vol(   0 ): 3.580E+14  Parms: SM      M1      
 Compute Stats, Diag. #     83  sIceLoad  vol(   0 ): 3.580E+14  Parms: SM      U1      
 Compute Stats, Diag. #    223  SIuice    vol(   0 ): 3.513E+14  Parms: UU      M1      
 Compute Stats, Diag. #    224  SIvice    vol(   0 ): 3.508E+14  Parms: VV      M1      
 Compute Stats, Diag. #    225  SItaux    vol(   0 ): 3.513E+14  Parms: UU      U1      
 Compute Stats, Diag. #    226  SItauy    vol(   0 ): 3.508E+14  Parms: VV      U1      
 cg2d: Sum(rhs),rhsMax =   2.43835575323489E+01  2.86240000099241E-01
 Computing Diagnostic #     86  oceQnet      Counter:       4   Parms: SM      U1      
 Computing Diagnostic #     87  oceQsw       Counter:       4   Parms: SM      U1      
 Computing Diagnostic #     84  oceFWflx     Counter:       4   Parms: SM      U1      
 Computing Diagnostic #     85  oceSflux     Counter:       4   Parms: SM      U1      
 Computing Diagnostic #     80  oceTAUX      Counter:       4   Parms: UU      U1      
           Vector  Mate for  oceTAUX      Diagnostic #     81  oceTAUY  exists 
 Computing Diagnostic #     81  oceTAUY      Counter:       4   Parms: VV      U1      
           Vector  Mate for  oceTAUY      Diagnostic #     80  oceTAUX  exists 
 Computing Diagnostic #     26  THETA        Counter:       4   Parms: SMR     MR      
 Computing Diagnostic #     27  SALT         Counter:       4   Parms: SMR     MR      
 Computing Diagnostic #     30  UVEL         Counter:       4   Parms: UUR     MR      
           Vector  Mate for  UVEL         Diagnostic #     31  VVEL     exists 
 Computing Diagnostic #     31  VVEL         Counter:       4   Parms: VVR     MR      
           Vector  Mate for  VVEL         Diagnostic #     30  UVEL     exists 
 Computing Diagnostic #    214  SIarea       Counter:       4   Parms: SM      M1      
 Computing Diagnostic #    217  SIheff       Counter:       4   Parms: SM      M1      
 Computing Diagnostic #    219  SIhsnow      Counter:       4   Parms: SM      M1      
 Computing Diagnostic #     83  sIceLoad     Counter:       4   Parms: SM      U1      
 Computing Diagnostic #    223  SIuice       Counter:       4   Parms: UU      M1      
           Vector  Mate for  SIuice       Diagnostic #    224  SIvice   exists 
 Computing Diagnostic #    224  SIvice       Counter:       4   Parms: VV      M1      
           Vector  Mate for  SIvice       Diagnostic #    223  SIuice   exists 
 Computing Diagnostic #    225  SItaux       Counter:       4   Parms: UU      U1      
           Vector  Mate for  SItaux       Diagnostic #    226  SItauy   exists 
 Computing Diagnostic #    226  SItauy       Counter:       4   Parms: VV      U1      
           Vector  Mate for  SItauy       Diagnostic #    225  SItaux   exists 
 Computing Diagnostic #    285  SIareaN      Counter:       4   Parms: SM      MX      
 Computing Diagnostic #    284  SIheffN      Counter:       4   Parms: SM      MX      
 Computing Diagnostic #    286  SIhsnowN     Counter:       4   Parms: SM      MX      
 Compute Stats, Diag. #    214  SIarea    vol(   0 ): 3.580E+14  Parms: SM      M1      
 Compute Stats, Diag. #    217  SIheff    vol(   0 ): 3.580E+14  Parms: SM      M1      
 Compute Stats, Diag. #    219  SIhsnow   vol(   0 ): 3.580E+14  Parms: SM      M1      
 Compute Stats, Diag. #     83  sIceLoad  vol(   0 ): 3.580E+14  Parms: SM      U1      
 Compute Stats, Diag. #    223  SIuice    vol(   0 ): 3.513E+14  Parms: UU      M1      
 Compute Stats, Diag. #    224  SIvice    vol(   0 ): 3.508E+14  Parms: VV      M1      
 Compute Stats, Diag. #    225  SItaux    vol(   0 ): 3.513E+14  Parms: UU      U1      
 Compute Stats, Diag. #    226  SItauy    vol(   0 ): 3.508E+14  Parms: VV      U1      
 cg2d: Sum(rhs),rhsMax =   2.43392121112304E+01  2.86321125296644E-01
 Compute Stats, Diag. #    214  SIarea    vol(   0 ): 3.580E+14  Parms: SM      M1      
 Compute Stats, Diag. #    217  SIheff    vol(   0 ): 3.580E+14  Parms: SM      M1      
 Compute Stats, Diag. #    219  SIhsnow   vol(   0 ): 3.580E+14  Parms: SM      M1      
 Compute Stats, Diag. #     83  sIceLoad  vol(   0 ): 3.580E+14  Parms: SM      U1      
 Compute Stats, Diag. #    223  SIuice    vol(   0 ): 3.513E+14  Parms: UU      M1      
 Compute Stats, Diag. #    224  SIvice    vol(   0 ): 3.508E+14  Parms: VV      M1      
 Compute Stats, Diag. #    225  SItaux    vol(   0 ): 3.513E+14  Parms: UU      U1      
 Compute Stats, Diag. #    226  SItauy    vol(   0 ): 3.508E+14  Parms: VV      U1      
 cg2d: Sum(rhs),rhsMax =   2.42926662239295E+01  2.86402179859190E-01
 Compute Stats, Diag. #    214  SIarea    vol(   0 ): 3.580E+14  Parms: SM      M1      
 Compute Stats, Diag. #    217  SIheff    vol(   0 ): 3.580E+14  Parms: SM      M1      
 Compute Stats, Diag. #    219  SIhsnow   vol(   0 ): 3.580E+14  Parms: SM      M1      
 Compute Stats, Diag. #     83  sIceLoad  vol(   0 ): 3.580E+14  Parms: SM      U1      
 Compute Stats, Diag. #    223  SIuice    vol(   0 ): 3.513E+14  Parms: UU      M1      
 Compute Stats, Diag. #    224  SIvice    vol(   0 ): 3.508E+14  Parms: VV      M1      
 Compute Stats, Diag. #    225  SItaux    vol(   0 ): 3.513E+14  Parms: UU      U1      
 Compute Stats, Diag. #    226  SItauy    vol(   0 ): 3.508E+14  Parms: VV      U1      
 cg2d: Sum(rhs),rhsMax =   2.42598482422773E+01  2.86482421596517E-01
 Compute Stats, Diag. #    214  SIarea    vol(   0 ): 3.580E+14  Parms: SM      M1      
 Compute Stats, Diag. #    217  SIheff    vol(   0 ): 3.580E+14  Parms: SM      M1      
 Compute Stats, Diag. #    219  SIhsnow   vol(   0 ): 3.580E+14  Parms: SM      M1      
 Compute Stats, Diag. #     83  sIceLoad  vol(   0 ): 3.580E+14  Parms: SM      U1      
 Compute Stats, Diag. #    223  SIuice    vol(   0 ): 3.513E+14  Parms: UU      M1      
 Compute Stats, Diag. #    224  SIvice    vol(   0 ): 3.508E+14  Parms: VV      M1      
 Compute Stats, Diag. #    225  SItaux    vol(   0 ): 3.513E+14  Parms: UU      U1      
 Compute Stats, Diag. #    226  SItauy    vol(   0 ): 3.508E+14  Parms: VV      U1      
 cg2d: Sum(rhs),rhsMax =   2.42368648071642E+01  2.86561471781185E-01
(PID.TID 0000.0001)      cg2d_init_res =   7.44863115532945E-02
(PID.TID 0000.0001)      cg2d_iters(min,last) =      -1      27
(PID.TID 0000.0001)      cg2d_last_res =   2.38843539495031E-05
(PID.TID 0000.0001) // =======================================================
(PID.TID 0000.0001) // Begin MONITOR dynamic field statistics
(PID.TID 0000.0001) // =======================================================
(PID.TID 0000.0001) %MON time_tsnumber                =                   384
(PID.TID 0000.0001) %MON time_secondsf                =   3.4560000000000E+05
(PID.TID 0000.0001) %MON dynstat_eta_max              =   1.0448385017257E+00
(PID.TID 0000.0001) %MON dynstat_eta_min              =  -1.8812854438874E+00
(PID.TID 0000.0001) %MON dynstat_eta_mean             =  -7.6668944126070E-04
(PID.TID 0000.0001) %MON dynstat_eta_sd               =   6.3755742346271E-01
(PID.TID 0000.0001) %MON dynstat_eta_del2             =   5.8307949940905E-05
(PID.TID 0000.0001) %MON dynstat_uvel_max             =   9.0757099430206E-01
(PID.TID 0000.0001) %MON dynstat_uvel_min             =  -5.7367693952273E-01
(PID.TID 0000.0001) %MON dynstat_uvel_mean            =   1.0571528379689E-03
(PID.TID 0000.0001) %MON dynstat_uvel_sd              =   1.9138992141870E-02
(PID.TID 0000.0001) %MON dynstat_uvel_del2            =   7.7890684011501E-06
(PID.TID 0000.0001) %MON dynstat_vvel_max             =   9.8745165309457E-01
(PID.TID 0000.0001) %MON dynstat_vvel_min             =  -8.4464167378240E-01
(PID.TID 0000.0001) %MON dynstat_vvel_mean            =   1.1561753754673E-03
(PID.TID 0000.0001) %MON dynstat_vvel_sd              =   2.0643079086147E-02
(PID.TID 0000.0001) %MON dynstat_vvel_del2            =   8.0679729602741E-06
(PID.TID 0000.0001) %MON dynstat_wvel_max             =   3.7819168109237E-04
(PID.TID 0000.0001) %MON dynstat_wvel_min             =  -8.3216904903390E-04
(PID.TID 0000.0001) %MON dynstat_wvel_mean            =   1.3772803513129E-08
(PID.TID 0000.0001) %MON dynstat_wvel_sd              =   1.9558598837557E-05
(PID.TID 0000.0001) %MON dynstat_wvel_del2            =   1.5501341352974E-08
(PID.TID 0000.0001) %MON dynstat_theta_max            =   3.2283906531283E+01
(PID.TID 0000.0001) %MON dynstat_theta_min            =  -2.0786274239261E+00
(PID.TID 0000.0001) %MON dynstat_theta_mean           =   3.5903888240811E+00
(PID.TID 0000.0001) %MON dynstat_theta_sd             =   4.4362161414381E+00
(PID.TID 0000.0001) %MON dynstat_theta_del2           =   9.6203665774954E-05
(PID.TID 0000.0001) %MON dynstat_salt_max             =   4.0711553795728E+01
(PID.TID 0000.0001) %MON dynstat_salt_min             =   1.1068826655047E+01
(PID.TID 0000.0001) %MON dynstat_salt_mean            =   3.4725578000348E+01
(PID.TID 0000.0001) %MON dynstat_salt_sd              =   3.7701225984824E-01
(PID.TID 0000.0001) %MON dynstat_salt_del2            =   3.4193273304920E-05
(PID.TID 0000.0001) %MON dynstat_sst_max              =   3.2278493236085E+01
(PID.TID 0000.0001) %MON dynstat_sst_min              =  -1.8063855979126E+00
(PID.TID 0000.0001) %MON dynstat_sst_mean             =   1.8482308484779E+01
(PID.TID 0000.0001) %MON dynstat_sst_sd               =   1.0181612249188E+01
(PID.TID 0000.0001) %MON dynstat_sst_del2             =   8.1339793916108E-04
(PID.TID 0000.0001) %MON dynstat_sss_max              =   3.9119954262747E+01
(PID.TID 0000.0001) %MON dynstat_sss_min              =   1.1068826655047E+01
(PID.TID 0000.0001) %MON dynstat_sss_mean             =   3.4699282462901E+01
(PID.TID 0000.0001) %MON dynstat_sss_sd               =   1.1538168758308E+00
(PID.TID 0000.0001) %MON dynstat_sss_del2             =   1.0231100635721E-03
(PID.TID 0000.0001) %MON forcing_qnet_max             =   7.0613500976562E+02
(PID.TID 0000.0001) %MON forcing_qnet_min             =  -3.4659890839065E+03
(PID.TID 0000.0001) %MON forcing_qnet_mean            =  -1.7295019732823E+01
(PID.TID 0000.0001) %MON forcing_qnet_sd              =   2.0122429725002E+02
(PID.TID 0000.0001) %MON forcing_qnet_del2            =   3.1558257942537E-01
(PID.TID 0000.0001) %MON forcing_qsw_max              =   0.0000000000000E+00
(PID.TID 0000.0001) %MON forcing_qsw_min              =  -1.0924351285999E+02
(PID.TID 0000.0001) %MON forcing_qsw_mean             =  -2.1920475190246E+01
(PID.TID 0000.0001) %MON forcing_qsw_sd               =   3.0487366553752E+01
(PID.TID 0000.0001) %MON forcing_qsw_del2             =   2.0021265006971E-02
(PID.TID 0000.0001) %MON forcing_empmr_max            =   1.0956488549709E-03
(PID.TID 0000.0001) %MON forcing_empmr_min            =  -7.7728308737278E-02
(PID.TID 0000.0001) %MON forcing_empmr_mean           =  -8.3124844559087E-07
(PID.TID 0000.0001) %MON forcing_empmr_sd             =   3.1642340034041E-04
(PID.TID 0000.0001) %MON forcing_empmr_del2           =   3.3192311173225E-06
(PID.TID 0000.0001) %MON forcing_fu_max               =   8.0453416705132E-01
(PID.TID 0000.0001) %MON forcing_fu_min               =  -5.5335816740990E-01
(PID.TID 0000.0001) %MON forcing_fu_mean              =   7.5806564117966E-03
(PID.TID 0000.0001) %MON forcing_fu_sd                =   9.1911902208999E-02
(PID.TID 0000.0001) %MON forcing_fu_del2              =   1.1740445338573E-04
(PID.TID 0000.0001) %MON forcing_fv_max               =   7.9941898584366E-01
(PID.TID 0000.0001) %MON forcing_fv_min               =  -7.6055360972102E-01
(PID.TID 0000.0001) %MON forcing_fv_mean              =  -2.4642268869245E-03
(PID.TID 0000.0001) %MON forcing_fv_sd                =   9.5664368333337E-02
(PID.TID 0000.0001) %MON forcing_fv_del2              =   1.1338897984456E-04
(PID.TID 0000.0001) %MON trAdv_CFL_u_max              =   1.0668369049234E-02
(PID.TID 0000.0001) %MON trAdv_CFL_v_max              =   1.7103154412734E-02
(PID.TID 0000.0001) %MON trAdv_CFL_w_max              =   2.2619415173713E-02
(PID.TID 0000.0001) %MON advcfl_uvel_max              =   9.4914364654185E-03
(PID.TID 0000.0001) %MON advcfl_vvel_max              =   1.7528159666358E-02
(PID.TID 0000.0001) %MON advcfl_wvel_max              =   2.1431911108975E-02
(PID.TID 0000.0001) %MON advcfl_W_hf_max              =   2.1660566898164E-02
(PID.TID 0000.0001) %MON pe_b_mean                    =   5.3468451819989E-04
(PID.TID 0000.0001) %MON ke_max                       =   4.6806645919357E-01
(PID.TID 0000.0001) %MON ke_mean                      =   3.8329428884268E-04
(PID.TID 0000.0001) %MON ke_vol                       =   1.3349976021936E+18
(PID.TID 0000.0001) %MON vort_r_min                   =  -1.7923196764433E-05
(PID.TID 0000.0001) %MON vort_r_max                   =   2.7435026673105E-05
(PID.TID 0000.0001) %MON vort_a_mean                  =  -1.9727864647440E-05
(PID.TID 0000.0001) %MON vort_a_sd                    =   7.4542943340861E-05
(PID.TID 0000.0001) %MON vort_p_mean                  =  -2.1760536620106E-05
(PID.TID 0000.0001) %MON vort_p_sd                    =   9.7246817138875E-05
(PID.TID 0000.0001) %MON surfExpan_theta_mean         =   7.8037910403581E-08
(PID.TID 0000.0001) %MON surfExpan_salt_mean          =   3.3560217082623E-08
(PID.TID 0000.0001) // =======================================================
(PID.TID 0000.0001) // End MONITOR dynamic field statistics
(PID.TID 0000.0001) // =======================================================
(PID.TID 0000.0001) // =======================================================
(PID.TID 0000.0001) // Begin MONITOR SEAICE statistics
(PID.TID 0000.0001) // =======================================================
(PID.TID 0000.0001) %MON seaice_tsnumber              =                   384
(PID.TID 0000.0001) %MON seaice_time_sec              =   3.4560000000000E+05
(PID.TID 0000.0001) %MON seaice_uice_max              =   4.0000000000000E-01
(PID.TID 0000.0001) %MON seaice_uice_min              =  -4.0000000000000E-01
(PID.TID 0000.0001) %MON seaice_uice_mean             =  -8.3054598624025E-03
(PID.TID 0000.0001) %MON seaice_uice_sd               =   1.9802383574176E-01
(PID.TID 0000.0001) %MON seaice_uice_del2             =   2.2931571122150E-04
(PID.TID 0000.0001) %MON seaice_vice_max              =   4.0000000000000E-01
(PID.TID 0000.0001) %MON seaice_vice_min              =  -4.0000000000000E-01
(PID.TID 0000.0001) %MON seaice_vice_mean             =  -2.1960776359499E-02
(PID.TID 0000.0001) %MON seaice_vice_sd               =   2.1302038025672E-01
(PID.TID 0000.0001) %MON seaice_vice_del2             =   2.3932563818061E-04
(PID.TID 0000.0001) %MON seaice_area_max              =   1.0000000000000E+00
(PID.TID 0000.0001) %MON seaice_area_min              =   0.0000000000000E+00
(PID.TID 0000.0001) %MON seaice_area_mean             =   6.7624377470660E-02
(PID.TID 0000.0001) %MON seaice_area_sd               =   2.3299581324167E-01
(PID.TID 0000.0001) %MON seaice_area_del2             =   4.2103488550450E-04
(PID.TID 0000.0001) %MON seaice_heff_max              =   2.5119013790740E+01
(PID.TID 0000.0001) %MON seaice_heff_min              =   0.0000000000000E+00
(PID.TID 0000.0001) %MON seaice_heff_mean             =   2.1447962349500E-01
(PID.TID 0000.0001) %MON seaice_heff_sd               =   1.0684970281623E+00
(PID.TID 0000.0001) %MON seaice_heff_del2             =   3.8778022734764E-03
(PID.TID 0000.0001) %MON seaice_hsnow_max             =   8.2965186127694E+00
(PID.TID 0000.0001) %MON seaice_hsnow_min             =   0.0000000000000E+00
(PID.TID 0000.0001) %MON seaice_hsnow_mean            =   2.4309780014724E-02
(PID.TID 0000.0001) %MON seaice_hsnow_sd              =   1.5686503964907E-01
(PID.TID 0000.0001) %MON seaice_hsnow_del2            =   1.2462449541120E-03
(PID.TID 0000.0001) // =======================================================
(PID.TID 0000.0001) // End MONITOR SEAICE statistics
(PID.TID 0000.0001) // =======================================================
 Computing Diagnostic #     86  oceQnet      Counter:       4   Parms: SM      U1      
 Computing Diagnostic #     87  oceQsw       Counter:       4   Parms: SM      U1      
 Computing Diagnostic #     84  oceFWflx     Counter:       4   Parms: SM      U1      
 Computing Diagnostic #     85  oceSflux     Counter:       4   Parms: SM      U1      
 Computing Diagnostic #     80  oceTAUX      Counter:       4   Parms: UU      U1      
           Vector  Mate for  oceTAUX      Diagnostic #     81  oceTAUY  exists 
 Computing Diagnostic #     81  oceTAUY      Counter:       4   Parms: VV      U1      
           Vector  Mate for  oceTAUY      Diagnostic #     80  oceTAUX  exists 
 Computing Diagnostic #     26  THETA        Counter:       4   Parms: SMR     MR      
 Computing Diagnostic #     27  SALT         Counter:       4   Parms: SMR     MR      
 Computing Diagnostic #     30  UVEL         Counter:       4   Parms: UUR     MR      
           Vector  Mate for  UVEL         Diagnostic #     31  VVEL     exists 
 Computing Diagnostic #     31  VVEL         Counter:       4   Parms: VVR     MR      
           Vector  Mate for  VVEL         Diagnostic #     30  UVEL     exists 
 Computing Diagnostic #    214  SIarea       Counter:       4   Parms: SM      M1      
 Computing Diagnostic #    217  SIheff       Counter:       4   Parms: SM      M1      
 Computing Diagnostic #    219  SIhsnow      Counter:       4   Parms: SM      M1      
 Computing Diagnostic #     83  sIceLoad     Counter:       4   Parms: SM      U1      
 Computing Diagnostic #    223  SIuice       Counter:       4   Parms: UU      M1      
           Vector  Mate for  SIuice       Diagnostic #    224  SIvice   exists 
 Computing Diagnostic #    224  SIvice       Counter:       4   Parms: VV      M1      
           Vector  Mate for  SIvice       Diagnostic #    223  SIuice   exists 
 Computing Diagnostic #    225  SItaux       Counter:       4   Parms: UU      U1      
           Vector  Mate for  SItaux       Diagnostic #    226  SItauy   exists 
 Computing Diagnostic #    226  SItauy       Counter:       4   Parms: VV      U1      
           Vector  Mate for  SItauy       Diagnostic #    225  SItaux   exists 
 Computing Diagnostic #    285  SIareaN      Counter:       4   Parms: SM      MX      
 Computing Diagnostic #    284  SIheffN      Counter:       4   Parms: SM      MX      
 Computing Diagnostic #    286  SIhsnowN     Counter:       4   Parms: SM      MX      
 Compute Stats, Diag. #    214  SIarea    vol(   0 ): 3.580E+14  Parms: SM      M1      
 Compute Stats, Diag. #    217  SIheff    vol(   0 ): 3.580E+14  Parms: SM      M1      
 Compute Stats, Diag. #    219  SIhsnow   vol(   0 ): 3.580E+14  Parms: SM      M1      
 Compute Stats, Diag. #     83  sIceLoad  vol(   0 ): 3.580E+14  Parms: SM      U1      
 Compute Stats, Diag. #    223  SIuice    vol(   0 ): 3.513E+14  Parms: UU      M1      
 Compute Stats, Diag. #    224  SIvice    vol(   0 ): 3.508E+14  Parms: VV      M1      
 Compute Stats, Diag. #    225  SItaux    vol(   0 ): 3.513E+14  Parms: UU      U1      
 Compute Stats, Diag. #    226  SItauy    vol(   0 ): 3.508E+14  Parms: VV      U1      
 cg2d: Sum(rhs),rhsMax =   2.42151475017175E+01  2.86639263623004E-01
 Compute Stats, Diag. #    214  SIarea    vol(   0 ): 3.580E+14  Parms: SM      M1      
 Compute Stats, Diag. #    217  SIheff    vol(   0 ): 3.580E+14  Parms: SM      M1      
 Compute Stats, Diag. #    219  SIhsnow   vol(   0 ): 3.580E+14  Parms: SM      M1      
 Compute Stats, Diag. #     83  sIceLoad  vol(   0 ): 3.580E+14  Parms: SM      U1      
 Compute Stats, Diag. #    223  SIuice    vol(   0 ): 3.513E+14  Parms: UU      M1      
 Compute Stats, Diag. #    224  SIvice    vol(   0 ): 3.508E+14  Parms: VV      M1      
 Compute Stats, Diag. #    225  SItaux    vol(   0 ): 3.513E+14  Parms: UU      U1      
 Compute Stats, Diag. #    226  SItauy    vol(   0 ): 3.508E+14  Parms: VV      U1      
 cg2d: Sum(rhs),rhsMax =   2.41835268827017E+01  2.86715539636152E-01
 Compute Stats, Diag. #    214  SIarea    vol(   0 ): 3.580E+14  Parms: SM      M1      
 Compute Stats, Diag. #    217  SIheff    vol(   0 ): 3.580E+14  Parms: SM      M1      
 Compute Stats, Diag. #    219  SIhsnow   vol(   0 ): 3.580E+14  Parms: SM      M1      
 Compute Stats, Diag. #     83  sIceLoad  vol(   0 ): 3.580E+14  Parms: SM      U1      
 Compute Stats, Diag. #    223  SIuice    vol(   0 ): 3.513E+14  Parms: UU      M1      
 Compute Stats, Diag. #    224  SIvice    vol(   0 ): 3.508E+14  Parms: VV      M1      
 Compute Stats, Diag. #    225  SItaux    vol(   0 ): 3.513E+14  Parms: UU      U1      
 Compute Stats, Diag. #    226  SItauy    vol(   0 ): 3.508E+14  Parms: VV      U1      
 cg2d: Sum(rhs),rhsMax =   2.41690107783072E+01  2.86789857206194E-01
 Compute Stats, Diag. #    214  SIarea    vol(   0 ): 3.580E+14  Parms: SM      M1      
 Compute Stats, Diag. #    217  SIheff    vol(   0 ): 3.580E+14  Parms: SM      M1      
 Compute Stats, Diag. #    219  SIhsnow   vol(   0 ): 3.580E+14  Parms: SM      M1      
 Compute Stats, Diag. #     83  sIceLoad  vol(   0 ): 3.580E+14  Parms: SM      U1      
 Compute Stats, Diag. #    223  SIuice    vol(   0 ): 3.513E+14  Parms: UU      M1      
 Compute Stats, Diag. #    224  SIvice    vol(   0 ): 3.508E+14  Parms: VV      M1      
 Compute Stats, Diag. #    225  SItaux    vol(   0 ): 3.513E+14  Parms: UU      U1      
 Compute Stats, Diag. #    226  SItauy    vol(   0 ): 3.508E+14  Parms: VV      U1      
 cg2d: Sum(rhs),rhsMax =   2.41650666557894E+01  2.86861967680901E-01
 Computing Diagnostic #     86  oceQnet      Counter:       4   Parms: SM      U1      
 Computing Diagnostic #     87  oceQsw       Counter:       4   Parms: SM      U1      
 Computing Diagnostic #     84  oceFWflx     Counter:       4   Parms: SM      U1      
 Computing Diagnostic #     85  oceSflux     Counter:       4   Parms: SM      U1      
 Computing Diagnostic #     80  oceTAUX      Counter:       4   Parms: UU      U1      
           Vector  Mate for  oceTAUX      Diagnostic #     81  oceTAUY  exists 
 Computing Diagnostic #     81  oceTAUY      Counter:       4   Parms: VV      U1      
           Vector  Mate for  oceTAUY      Diagnostic #     80  oceTAUX  exists 
 Computing Diagnostic #     26  THETA        Counter:       4   Parms: SMR     MR      
 Computing Diagnostic #     27  SALT         Counter:       4   Parms: SMR     MR      
 Computing Diagnostic #     30  UVEL         Counter:       4   Parms: UUR     MR      
           Vector  Mate for  UVEL         Diagnostic #     31  VVEL     exists 
 Computing Diagnostic #     31  VVEL         Counter:       4   Parms: VVR     MR      
           Vector  Mate for  VVEL         Diagnostic #     30  UVEL     exists 
 Computing Diagnostic #    214  SIarea       Counter:       4   Parms: SM      M1      
 Computing Diagnostic #    217  SIheff       Counter:       4   Parms: SM      M1      
 Computing Diagnostic #    219  SIhsnow      Counter:       4   Parms: SM      M1      
 Computing Diagnostic #     83  sIceLoad     Counter:       4   Parms: SM      U1      
 Computing Diagnostic #    223  SIuice       Counter:       4   Parms: UU      M1      
           Vector  Mate for  SIuice       Diagnostic #    224  SIvice   exists 
 Computing Diagnostic #    224  SIvice       Counter:       4   Parms: VV      M1      
           Vector  Mate for  SIvice       Diagnostic #    223  SIuice   exists 
 Computing Diagnostic #    225  SItaux       Counter:       4   Parms: UU      U1      
           Vector  Mate for  SItaux       Diagnostic #    226  SItauy   exists 
 Computing Diagnostic #    226  SItauy       Counter:       4   Parms: VV      U1      
           Vector  Mate for  SItauy       Diagnostic #    225  SItaux   exists 
 Computing Diagnostic #    285  SIareaN      Counter:       4   Parms: SM      MX      
 Computing Diagnostic #    284  SIheffN      Counter:       4   Parms: SM      MX      
 Computing Diagnostic #    286  SIhsnowN     Counter:       4   Parms: SM      MX      
 Compute Stats, Diag. #    214  SIarea    vol(   0 ): 3.580E+14  Parms: SM      M1      
 Compute Stats, Diag. #    217  SIheff    vol(   0 ): 3.580E+14  Parms: SM      M1      
 Compute Stats, Diag. #    219  SIhsnow   vol(   0 ): 3.580E+14  Parms: SM      M1      
 Compute Stats, Diag. #     83  sIceLoad  vol(   0 ): 3.580E+14  Parms: SM      U1      
 Compute Stats, Diag. #    223  SIuice    vol(   0 ): 3.513E+14  Parms: UU      M1      
 Compute Stats, Diag. #    224  SIvice    vol(   0 ): 3.508E+14  Parms: VV      M1      
 Compute Stats, Diag. #    225  SItaux    vol(   0 ): 3.513E+14  Parms: UU      U1      
 Compute Stats, Diag. #    226  SItauy    vol(   0 ): 3.508E+14  Parms: VV      U1      
 cg2d: Sum(rhs),rhsMax =   2.41600020082645E+01  2.86932084958920E-01
 Compute Stats, Diag. #    214  SIarea    vol(   0 ): 3.580E+14  Parms: SM      M1      
 Compute Stats, Diag. #    217  SIheff    vol(   0 ): 3.580E+14  Parms: SM      M1      
 Compute Stats, Diag. #    219  SIhsnow   vol(   0 ): 3.580E+14  Parms: SM      M1      
 Compute Stats, Diag. #     83  sIceLoad  vol(   0 ): 3.580E+14  Parms: SM      U1      
 Compute Stats, Diag. #    223  SIuice    vol(   0 ): 3.513E+14  Parms: UU      M1      
 Compute Stats, Diag. #    224  SIvice    vol(   0 ): 3.508E+14  Parms: VV      M1      
 Compute Stats, Diag. #    225  SItaux    vol(   0 ): 3.513E+14  Parms: UU      U1      
 Compute Stats, Diag. #    226  SItauy    vol(   0 ): 3.508E+14  Parms: VV      U1      
 cg2d: Sum(rhs),rhsMax =   2.41558654577641E+01  2.87000125337483E-01
 Compute Stats, Diag. #    214  SIarea    vol(   0 ): 3.580E+14  Parms: SM      M1      
 Compute Stats, Diag. #    217  SIheff    vol(   0 ): 3.580E+14  Parms: SM      M1      
 Compute Stats, Diag. #    219  SIhsnow   vol(   0 ): 3.580E+14  Parms: SM      M1      
 Compute Stats, Diag. #     83  sIceLoad  vol(   0 ): 3.580E+14  Parms: SM      U1      
 Compute Stats, Diag. #    223  SIuice    vol(   0 ): 3.513E+14  Parms: UU      M1      
 Compute Stats, Diag. #    224  SIvice    vol(   0 ): 3.508E+14  Parms: VV      M1      
 Compute Stats, Diag. #    225  SItaux    vol(   0 ): 3.513E+14  Parms: UU      U1      
 Compute Stats, Diag. #    226  SItauy    vol(   0 ): 3.508E+14  Parms: VV      U1      
 cg2d: Sum(rhs),rhsMax =   2.41607076264148E+01  2.87066698473191E-01
 Compute Stats, Diag. #    214  SIarea    vol(   0 ): 3.580E+14  Parms: SM      M1      
 Compute Stats, Diag. #    217  SIheff    vol(   0 ): 3.580E+14  Parms: SM      M1      
 Compute Stats, Diag. #    219  SIhsnow   vol(   0 ): 3.580E+14  Parms: SM      M1      
 Compute Stats, Diag. #     83  sIceLoad  vol(   0 ): 3.580E+14  Parms: SM      U1      
 Compute Stats, Diag. #    223  SIuice    vol(   0 ): 3.513E+14  Parms: UU      M1      
 Compute Stats, Diag. #    224  SIvice    vol(   0 ): 3.508E+14  Parms: VV      M1      
 Compute Stats, Diag. #    225  SItaux    vol(   0 ): 3.513E+14  Parms: UU      U1      
 Compute Stats, Diag. #    226  SItauy    vol(   0 ): 3.508E+14  Parms: VV      U1      
 cg2d: Sum(rhs),rhsMax =   2.41685789311407E+01  2.87131905717975E-01
(PID.TID 0000.0001)      cg2d_init_res =   7.87082531286129E-02
(PID.TID 0000.0001)      cg2d_iters(min,last) =      -1      27
(PID.TID 0000.0001)      cg2d_last_res =   2.45735146215875E-05
(PID.TID 0000.0001) // =======================================================
(PID.TID 0000.0001) // Begin MONITOR dynamic field statistics
(PID.TID 0000.0001) // =======================================================
(PID.TID 0000.0001) %MON time_tsnumber                =                   392
(PID.TID 0000.0001) %MON time_secondsf                =   3.5280000000000E+05
(PID.TID 0000.0001) %MON dynstat_eta_max              =   1.0432805684628E+00
(PID.TID 0000.0001) %MON dynstat_eta_min              =  -1.8796724920492E+00
(PID.TID 0000.0001) %MON dynstat_eta_mean             =  -7.6452934091141E-04
(PID.TID 0000.0001) %MON dynstat_eta_sd               =   6.3746814561937E-01
(PID.TID 0000.0001) %MON dynstat_eta_del2             =   5.7882650944656E-05
(PID.TID 0000.0001) %MON dynstat_uvel_max             =   9.0255495484316E-01
(PID.TID 0000.0001) %MON dynstat_uvel_min             =  -5.6324057469098E-01
(PID.TID 0000.0001) %MON dynstat_uvel_mean            =   1.0929598209022E-03
(PID.TID 0000.0001) %MON dynstat_uvel_sd              =   1.9088967554498E-02
(PID.TID 0000.0001) %MON dynstat_uvel_del2            =   7.7745027145574E-06
(PID.TID 0000.0001) %MON dynstat_vvel_max             =   9.6583095024035E-01
(PID.TID 0000.0001) %MON dynstat_vvel_min             =  -8.4433333389504E-01
(PID.TID 0000.0001) %MON dynstat_vvel_mean            =   1.1806771758417E-03
(PID.TID 0000.0001) %MON dynstat_vvel_sd              =   2.0569257104068E-02
(PID.TID 0000.0001) %MON dynstat_vvel_del2            =   8.0155736853428E-06
(PID.TID 0000.0001) %MON dynstat_wvel_max             =   3.7792573271156E-04
(PID.TID 0000.0001) %MON dynstat_wvel_min             =  -8.3157261630492E-04
(PID.TID 0000.0001) %MON dynstat_wvel_mean            =   1.3996587928882E-08
(PID.TID 0000.0001) %MON dynstat_wvel_sd              =   1.9331971571962E-05
(PID.TID 0000.0001) %MON dynstat_wvel_del2            =   1.5345453103687E-08
(PID.TID 0000.0001) %MON dynstat_theta_max            =   3.2271598733026E+01
(PID.TID 0000.0001) %MON dynstat_theta_min            =  -2.0804251649282E+00
(PID.TID 0000.0001) %MON dynstat_theta_mean           =   3.5903990026548E+00
(PID.TID 0000.0001) %MON dynstat_theta_sd             =   4.4362780405799E+00
(PID.TID 0000.0001) %MON dynstat_theta_del2           =   9.6103562282419E-05
(PID.TID 0000.0001) %MON dynstat_salt_max             =   4.0711555755424E+01
(PID.TID 0000.0001) %MON dynstat_salt_min             =   1.0886433043929E+01
(PID.TID 0000.0001) %MON dynstat_salt_mean            =   3.4725577953099E+01
(PID.TID 0000.0001) %MON dynstat_salt_sd              =   3.7701220928180E-01
(PID.TID 0000.0001) %MON dynstat_salt_del2            =   3.3956141104524E-05
(PID.TID 0000.0001) %MON dynstat_sst_max              =   3.2271598733026E+01
(PID.TID 0000.0001) %MON dynstat_sst_min              =  -1.8063864484472E+00
(PID.TID 0000.0001) %MON dynstat_sst_mean             =   1.8485306643650E+01
(PID.TID 0000.0001) %MON dynstat_sst_sd               =   1.0184078798713E+01
(PID.TID 0000.0001) %MON dynstat_sst_del2             =   8.1420814626699E-04
(PID.TID 0000.0001) %MON dynstat_sss_max              =   3.9119120562512E+01
(PID.TID 0000.0001) %MON dynstat_sss_min              =   1.0886433043929E+01
(PID.TID 0000.0001) %MON dynstat_sss_mean             =   3.4699420252358E+01
(PID.TID 0000.0001) %MON dynstat_sss_sd               =   1.1541436510332E+00
(PID.TID 0000.0001) %MON dynstat_sss_del2             =   1.0099385109260E-03
(PID.TID 0000.0001) %MON forcing_qnet_max             =   7.4334375227054E+02
(PID.TID 0000.0001) %MON forcing_qnet_min             =  -7.7273010639998E+02
(PID.TID 0000.0001) %MON forcing_qnet_mean            =  -2.4359378450464E+01
(PID.TID 0000.0001) %MON forcing_qnet_sd              =   2.0210667601467E+02
(PID.TID 0000.0001) %MON forcing_qnet_del2            =   3.1190319717883E-01
(PID.TID 0000.0001) %MON forcing_qsw_max              =   0.0000000000000E+00
(PID.TID 0000.0001) %MON forcing_qsw_min              =  -1.0911059682104E+02
(PID.TID 0000.0001) %MON forcing_qsw_mean             =  -2.2944907144643E+01
(PID.TID 0000.0001) %MON forcing_qsw_sd               =   3.0572520278971E+01
(PID.TID 0000.0001) %MON forcing_qsw_del2             =   2.0595420496463E-02
(PID.TID 0000.0001) %MON forcing_empmr_max            =   1.0942926164716E-03
(PID.TID 0000.0001) %MON forcing_empmr_min            =  -4.3545290827751E-02
(PID.TID 0000.0001) %MON forcing_empmr_mean           =   2.8468372041231E-07
(PID.TID 0000.0001) %MON forcing_empmr_sd             =   2.0481001273304E-04
(PID.TID 0000.0001) %MON forcing_empmr_del2           =   2.0361010459206E-06
(PID.TID 0000.0001) %MON forcing_fu_max               =   8.3698615431786E-01
(PID.TID 0000.0001) %MON forcing_fu_min               =  -5.1142594218254E-01
(PID.TID 0000.0001) %MON forcing_fu_mean              =   7.5033506549043E-03
(PID.TID 0000.0001) %MON forcing_fu_sd                =   9.3112423524713E-02
(PID.TID 0000.0001) %MON forcing_fu_del2              =   1.1879769741942E-04
(PID.TID 0000.0001) %MON forcing_fv_max               =   7.7913576364517E-01
(PID.TID 0000.0001) %MON forcing_fv_min               =  -7.5219766352178E-01
(PID.TID 0000.0001) %MON forcing_fv_mean              =  -2.1238281320550E-03
(PID.TID 0000.0001) %MON forcing_fv_sd                =   9.4888908038393E-02
(PID.TID 0000.0001) %MON forcing_fv_del2              =   1.1191621413482E-04
(PID.TID 0000.0001) %MON trAdv_CFL_u_max              =   1.0698743094556E-02
(PID.TID 0000.0001) %MON trAdv_CFL_v_max              =   1.6753330282583E-02
(PID.TID 0000.0001) %MON trAdv_CFL_w_max              =   2.1825269666839E-02
(PID.TID 0000.0001) %MON advcfl_uvel_max              =   9.3187676915736E-03
(PID.TID 0000.0001) %MON advcfl_vvel_max              =   1.7144372641909E-02
(PID.TID 0000.0001) %MON advcfl_wvel_max              =   2.0637973057691E-02
(PID.TID 0000.0001) %MON advcfl_W_hf_max              =   2.0858192157388E-02
(PID.TID 0000.0001) %MON pe_b_mean                    =   5.3453477921827E-04
(PID.TID 0000.0001) %MON ke_max                       =   4.4756322455154E-01
(PID.TID 0000.0001) %MON ke_mean                      =   3.8096980988001E-04
(PID.TID 0000.0001) %MON ke_vol                       =   1.3349976033163E+18
(PID.TID 0000.0001) %MON vort_r_min                   =  -1.7602272593773E-05
(PID.TID 0000.0001) %MON vort_r_max                   =   2.6864284110416E-05
(PID.TID 0000.0001) %MON vort_a_mean                  =  -1.9727864647440E-05
(PID.TID 0000.0001) %MON vort_a_sd                    =   7.4542942764033E-05
(PID.TID 0000.0001) %MON vort_p_mean                  =  -2.1760536672748E-05
(PID.TID 0000.0001) %MON vort_p_sd                    =   9.7246777590358E-05
(PID.TID 0000.0001) %MON surfExpan_theta_mean         =   9.7707782978251E-08
(PID.TID 0000.0001) %MON surfExpan_salt_mean          =   3.0507924026345E-08
(PID.TID 0000.0001) // =======================================================
(PID.TID 0000.0001) // End MONITOR dynamic field statistics
(PID.TID 0000.0001) // =======================================================
(PID.TID 0000.0001) // =======================================================
(PID.TID 0000.0001) // Begin MONITOR SEAICE statistics
(PID.TID 0000.0001) // =======================================================
(PID.TID 0000.0001) %MON seaice_tsnumber              =                   392
(PID.TID 0000.0001) %MON seaice_time_sec              =   3.5280000000000E+05
(PID.TID 0000.0001) %MON seaice_uice_max              =   4.0000000000000E-01
(PID.TID 0000.0001) %MON seaice_uice_min              =  -4.0000000000000E-01
(PID.TID 0000.0001) %MON seaice_uice_mean             =  -8.3054598624025E-03
(PID.TID 0000.0001) %MON seaice_uice_sd               =   1.9802383574176E-01
(PID.TID 0000.0001) %MON seaice_uice_del2             =   2.2931571122150E-04
(PID.TID 0000.0001) %MON seaice_vice_max              =   4.0000000000000E-01
(PID.TID 0000.0001) %MON seaice_vice_min              =  -4.0000000000000E-01
(PID.TID 0000.0001) %MON seaice_vice_mean             =  -2.1960776359499E-02
(PID.TID 0000.0001) %MON seaice_vice_sd               =   2.1302038025672E-01
(PID.TID 0000.0001) %MON seaice_vice_del2             =   2.3932563818061E-04
(PID.TID 0000.0001) %MON seaice_area_max              =   1.0000000000000E+00
(PID.TID 0000.0001) %MON seaice_area_min              =   0.0000000000000E+00
(PID.TID 0000.0001) %MON seaice_area_mean             =   6.7581613122900E-02
(PID.TID 0000.0001) %MON seaice_area_sd               =   2.3291650096456E-01
(PID.TID 0000.0001) %MON seaice_area_del2             =   4.2026327551016E-04
(PID.TID 0000.0001) %MON seaice_heff_max              =   2.5115844982443E+01
(PID.TID 0000.0001) %MON seaice_heff_min              =   0.0000000000000E+00
(PID.TID 0000.0001) %MON seaice_heff_mean             =   2.1443107506244E-01
(PID.TID 0000.0001) %MON seaice_heff_sd               =   1.0684378427130E+00
(PID.TID 0000.0001) %MON seaice_heff_del2             =   3.8769065057820E-03
(PID.TID 0000.0001) %MON seaice_hsnow_max             =   8.2954775698599E+00
(PID.TID 0000.0001) %MON seaice_hsnow_min             =   0.0000000000000E+00
(PID.TID 0000.0001) %MON seaice_hsnow_mean            =   2.4303227820461E-02
(PID.TID 0000.0001) %MON seaice_hsnow_sd              =   1.5684682841571E-01
(PID.TID 0000.0001) %MON seaice_hsnow_del2            =   1.2460548910488E-03
(PID.TID 0000.0001) // =======================================================
(PID.TID 0000.0001) // End MONITOR SEAICE statistics
(PID.TID 0000.0001) // =======================================================
 Computing Diagnostic #     86  oceQnet      Counter:       4   Parms: SM      U1      
 Computing Diagnostic #     87  oceQsw       Counter:       4   Parms: SM      U1      
 Computing Diagnostic #     84  oceFWflx     Counter:       4   Parms: SM      U1      
 Computing Diagnostic #     85  oceSflux     Counter:       4   Parms: SM      U1      
 Computing Diagnostic #     80  oceTAUX      Counter:       4   Parms: UU      U1      
           Vector  Mate for  oceTAUX      Diagnostic #     81  oceTAUY  exists 
 Computing Diagnostic #     81  oceTAUY      Counter:       4   Parms: VV      U1      
           Vector  Mate for  oceTAUY      Diagnostic #     80  oceTAUX  exists 
 Computing Diagnostic #     26  THETA        Counter:       4   Parms: SMR     MR      
 Computing Diagnostic #     27  SALT         Counter:       4   Parms: SMR     MR      
 Computing Diagnostic #     30  UVEL         Counter:       4   Parms: UUR     MR      
           Vector  Mate for  UVEL         Diagnostic #     31  VVEL     exists 
 Computing Diagnostic #     31  VVEL         Counter:       4   Parms: VVR     MR      
           Vector  Mate for  VVEL         Diagnostic #     30  UVEL     exists 
 Computing Diagnostic #    214  SIarea       Counter:       4   Parms: SM      M1      
 Computing Diagnostic #    217  SIheff       Counter:       4   Parms: SM      M1      
 Computing Diagnostic #    219  SIhsnow      Counter:       4   Parms: SM      M1      
 Computing Diagnostic #     83  sIceLoad     Counter:       4   Parms: SM      U1      
 Computing Diagnostic #    223  SIuice       Counter:       4   Parms: UU      M1      
           Vector  Mate for  SIuice       Diagnostic #    224  SIvice   exists 
 Computing Diagnostic #    224  SIvice       Counter:       4   Parms: VV      M1      
           Vector  Mate for  SIvice       Diagnostic #    223  SIuice   exists 
 Computing Diagnostic #    225  SItaux       Counter:       4   Parms: UU      U1      
           Vector  Mate for  SItaux       Diagnostic #    226  SItauy   exists 
 Computing Diagnostic #    226  SItauy       Counter:       4   Parms: VV      U1      
           Vector  Mate for  SItauy       Diagnostic #    225  SItaux   exists 
 Computing Diagnostic #    285  SIareaN      Counter:       4   Parms: SM      MX      
 Computing Diagnostic #    284  SIheffN      Counter:       4   Parms: SM      MX      
 Computing Diagnostic #    286  SIhsnowN     Counter:       4   Parms: SM      MX      
 Compute Stats, Diag. #    214  SIarea    vol(   0 ): 3.580E+14  Parms: SM      M1      
 Compute Stats, Diag. #    217  SIheff    vol(   0 ): 3.580E+14  Parms: SM      M1      
 Compute Stats, Diag. #    219  SIhsnow   vol(   0 ): 3.580E+14  Parms: SM      M1      
 Compute Stats, Diag. #     83  sIceLoad  vol(   0 ): 3.580E+14  Parms: SM      U1      
 Compute Stats, Diag. #    223  SIuice    vol(   0 ): 3.513E+14  Parms: UU      M1      
 Compute Stats, Diag. #    224  SIvice    vol(   0 ): 3.508E+14  Parms: VV      M1      
 Compute Stats, Diag. #    225  SItaux    vol(   0 ): 3.513E+14  Parms: UU      U1      
 Compute Stats, Diag. #    226  SItauy    vol(   0 ): 3.508E+14  Parms: VV      U1      
 cg2d: Sum(rhs),rhsMax =   2.41766839938735E+01  2.87195848552323E-01
 Compute Stats, Diag. #    214  SIarea    vol(   0 ): 3.580E+14  Parms: SM      M1      
 Compute Stats, Diag. #    217  SIheff    vol(   0 ): 3.580E+14  Parms: SM      M1      
 Compute Stats, Diag. #    219  SIhsnow   vol(   0 ): 3.580E+14  Parms: SM      M1      
 Compute Stats, Diag. #     83  sIceLoad  vol(   0 ): 3.580E+14  Parms: SM      U1      
 Compute Stats, Diag. #    223  SIuice    vol(   0 ): 3.513E+14  Parms: UU      M1      
 Compute Stats, Diag. #    224  SIvice    vol(   0 ): 3.508E+14  Parms: VV      M1      
 Compute Stats, Diag. #    225  SItaux    vol(   0 ): 3.513E+14  Parms: UU      U1      
 Compute Stats, Diag. #    226  SItauy    vol(   0 ): 3.508E+14  Parms: VV      U1      
 cg2d: Sum(rhs),rhsMax =   2.41875294376055E+01  2.87258565491164E-01
 Compute Stats, Diag. #    214  SIarea    vol(   0 ): 3.580E+14  Parms: SM      M1      
 Compute Stats, Diag. #    217  SIheff    vol(   0 ): 3.580E+14  Parms: SM      M1      
 Compute Stats, Diag. #    219  SIhsnow   vol(   0 ): 3.580E+14  Parms: SM      M1      
 Compute Stats, Diag. #     83  sIceLoad  vol(   0 ): 3.580E+14  Parms: SM      U1      
 Compute Stats, Diag. #    223  SIuice    vol(   0 ): 3.513E+14  Parms: UU      M1      
 Compute Stats, Diag. #    224  SIvice    vol(   0 ): 3.508E+14  Parms: VV      M1      
 Compute Stats, Diag. #    225  SItaux    vol(   0 ): 3.513E+14  Parms: UU      U1      
 Compute Stats, Diag. #    226  SItauy    vol(   0 ): 3.508E+14  Parms: VV      U1      
 cg2d: Sum(rhs),rhsMax =   2.42204812523618E+01  2.87320107576061E-01
 Compute Stats, Diag. #    214  SIarea    vol(   0 ): 3.580E+14  Parms: SM      M1      
 Compute Stats, Diag. #    217  SIheff    vol(   0 ): 3.580E+14  Parms: SM      M1      
 Compute Stats, Diag. #    219  SIhsnow   vol(   0 ): 3.580E+14  Parms: SM      M1      
 Compute Stats, Diag. #     83  sIceLoad  vol(   0 ): 3.580E+14  Parms: SM      U1      
 Compute Stats, Diag. #    223  SIuice    vol(   0 ): 3.513E+14  Parms: UU      M1      
 Compute Stats, Diag. #    224  SIvice    vol(   0 ): 3.508E+14  Parms: VV      M1      
 Compute Stats, Diag. #    225  SItaux    vol(   0 ): 3.513E+14  Parms: UU      U1      
 Compute Stats, Diag. #    226  SItauy    vol(   0 ): 3.508E+14  Parms: VV      U1      
 cg2d: Sum(rhs),rhsMax =   2.42549838926556E+01  2.87378220643454E-01
 Computing Diagnostic #     86  oceQnet      Counter:       4   Parms: SM      U1      
 Computing Diagnostic #     87  oceQsw       Counter:       4   Parms: SM      U1      
 Computing Diagnostic #     84  oceFWflx     Counter:       4   Parms: SM      U1      
 Computing Diagnostic #     85  oceSflux     Counter:       4   Parms: SM      U1      
 Computing Diagnostic #     80  oceTAUX      Counter:       4   Parms: UU      U1      
           Vector  Mate for  oceTAUX      Diagnostic #     81  oceTAUY  exists 
 Computing Diagnostic #     81  oceTAUY      Counter:       4   Parms: VV      U1      
           Vector  Mate for  oceTAUY      Diagnostic #     80  oceTAUX  exists 
 Computing Diagnostic #     26  THETA        Counter:       4   Parms: SMR     MR      
 Computing Diagnostic #     27  SALT         Counter:       4   Parms: SMR     MR      
 Computing Diagnostic #     30  UVEL         Counter:       4   Parms: UUR     MR      
           Vector  Mate for  UVEL         Diagnostic #     31  VVEL     exists 
 Computing Diagnostic #     31  VVEL         Counter:       4   Parms: VVR     MR      
           Vector  Mate for  VVEL         Diagnostic #     30  UVEL     exists 
 Computing Diagnostic #    214  SIarea       Counter:       4   Parms: SM      M1      
 Computing Diagnostic #    217  SIheff       Counter:       4   Parms: SM      M1      
 Computing Diagnostic #    219  SIhsnow      Counter:       4   Parms: SM      M1      
 Computing Diagnostic #     83  sIceLoad     Counter:       4   Parms: SM      U1      
 Computing Diagnostic #    223  SIuice       Counter:       4   Parms: UU      M1      
           Vector  Mate for  SIuice       Diagnostic #    224  SIvice   exists 
 Computing Diagnostic #    224  SIvice       Counter:       4   Parms: VV      M1      
           Vector  Mate for  SIvice       Diagnostic #    223  SIuice   exists 
 Computing Diagnostic #    225  SItaux       Counter:       4   Parms: UU      U1      
           Vector  Mate for  SItaux       Diagnostic #    226  SItauy   exists 
 Computing Diagnostic #    226  SItauy       Counter:       4   Parms: VV      U1      
           Vector  Mate for  SItauy       Diagnostic #    225  SItaux   exists 
 Computing Diagnostic #    285  SIareaN      Counter:       4   Parms: SM      MX      
 Computing Diagnostic #    284  SIheffN      Counter:       4   Parms: SM      MX      
 Computing Diagnostic #    286  SIhsnowN     Counter:       4   Parms: SM      MX      
 Compute Stats, Diag. #    214  SIarea    vol(   0 ): 3.580E+14  Parms: SM      M1      
 Compute Stats, Diag. #    217  SIheff    vol(   0 ): 3.580E+14  Parms: SM      M1      
 Compute Stats, Diag. #    219  SIhsnow   vol(   0 ): 3.580E+14  Parms: SM      M1      
 Compute Stats, Diag. #     83  sIceLoad  vol(   0 ): 3.580E+14  Parms: SM      U1      
 Compute Stats, Diag. #    223  SIuice    vol(   0 ): 3.513E+14  Parms: UU      M1      
 Compute Stats, Diag. #    224  SIvice    vol(   0 ): 3.508E+14  Parms: VV      M1      
 Compute Stats, Diag. #    225  SItaux    vol(   0 ): 3.513E+14  Parms: UU      U1      
 Compute Stats, Diag. #    226  SItauy    vol(   0 ): 3.508E+14  Parms: VV      U1      
 cg2d: Sum(rhs),rhsMax =   2.42865211058187E+01  2.87435130953477E-01
 Compute Stats, Diag. #    214  SIarea    vol(   0 ): 3.580E+14  Parms: SM      M1      
 Compute Stats, Diag. #    217  SIheff    vol(   0 ): 3.580E+14  Parms: SM      M1      
 Compute Stats, Diag. #    219  SIhsnow   vol(   0 ): 3.580E+14  Parms: SM      M1      
 Compute Stats, Diag. #     83  sIceLoad  vol(   0 ): 3.580E+14  Parms: SM      U1      
 Compute Stats, Diag. #    223  SIuice    vol(   0 ): 3.513E+14  Parms: UU      M1      
 Compute Stats, Diag. #    224  SIvice    vol(   0 ): 3.508E+14  Parms: VV      M1      
 Compute Stats, Diag. #    225  SItaux    vol(   0 ): 3.513E+14  Parms: UU      U1      
 Compute Stats, Diag. #    226  SItauy    vol(   0 ): 3.508E+14  Parms: VV      U1      
 cg2d: Sum(rhs),rhsMax =   2.43195562024637E+01  2.87492079666541E-01
 Compute Stats, Diag. #    214  SIarea    vol(   0 ): 3.580E+14  Parms: SM      M1      
 Compute Stats, Diag. #    217  SIheff    vol(   0 ): 3.580E+14  Parms: SM      M1      
 Compute Stats, Diag. #    219  SIhsnow   vol(   0 ): 3.580E+14  Parms: SM      M1      
 Compute Stats, Diag. #     83  sIceLoad  vol(   0 ): 3.580E+14  Parms: SM      U1      
 Compute Stats, Diag. #    223  SIuice    vol(   0 ): 3.513E+14  Parms: UU      M1      
 Compute Stats, Diag. #    224  SIvice    vol(   0 ): 3.508E+14  Parms: VV      M1      
 Compute Stats, Diag. #    225  SItaux    vol(   0 ): 3.513E+14  Parms: UU      U1      
 Compute Stats, Diag. #    226  SItauy    vol(   0 ): 3.508E+14  Parms: VV      U1      
 cg2d: Sum(rhs),rhsMax =   2.43543295765306E+01  2.87550355678508E-01
 Compute Stats, Diag. #    214  SIarea    vol(   0 ): 3.580E+14  Parms: SM      M1      
 Compute Stats, Diag. #    217  SIheff    vol(   0 ): 3.580E+14  Parms: SM      M1      
 Compute Stats, Diag. #    219  SIhsnow   vol(   0 ): 3.580E+14  Parms: SM      M1      
 Compute Stats, Diag. #     83  sIceLoad  vol(   0 ): 3.580E+14  Parms: SM      U1      
 Compute Stats, Diag. #    223  SIuice    vol(   0 ): 3.513E+14  Parms: UU      M1      
 Compute Stats, Diag. #    224  SIvice    vol(   0 ): 3.508E+14  Parms: VV      M1      
 Compute Stats, Diag. #    225  SItaux    vol(   0 ): 3.513E+14  Parms: UU      U1      
 Compute Stats, Diag. #    226  SItauy    vol(   0 ): 3.508E+14  Parms: VV      U1      
 cg2d: Sum(rhs),rhsMax =   2.43901413523132E+01  2.87608836808421E-01
(PID.TID 0000.0001)      cg2d_init_res =   7.62611016564998E-02
(PID.TID 0000.0001)      cg2d_iters(min,last) =      -1      27
(PID.TID 0000.0001)      cg2d_last_res =   2.31956945438135E-05
(PID.TID 0000.0001) // =======================================================
(PID.TID 0000.0001) // Begin MONITOR dynamic field statistics
(PID.TID 0000.0001) // =======================================================
(PID.TID 0000.0001) %MON time_tsnumber                =                   400
(PID.TID 0000.0001) %MON time_secondsf                =   3.6000000000000E+05
(PID.TID 0000.0001) %MON dynstat_eta_max              =   1.0419703826526E+00
(PID.TID 0000.0001) %MON dynstat_eta_min              =  -1.8777917478580E+00
(PID.TID 0000.0001) %MON dynstat_eta_mean             =  -7.7153806791665E-04
(PID.TID 0000.0001) %MON dynstat_eta_sd               =   6.3744129841244E-01
(PID.TID 0000.0001) %MON dynstat_eta_del2             =   5.7719955871514E-05
(PID.TID 0000.0001) %MON dynstat_uvel_max             =   8.9675348205785E-01
(PID.TID 0000.0001) %MON dynstat_uvel_min             =  -5.7017840127826E-01
(PID.TID 0000.0001) %MON dynstat_uvel_mean            =   1.1333595019876E-03
(PID.TID 0000.0001) %MON dynstat_uvel_sd              =   1.9020950754301E-02
(PID.TID 0000.0001) %MON dynstat_uvel_del2            =   7.7615926124994E-06
(PID.TID 0000.0001) %MON dynstat_vvel_max             =   9.4830868520044E-01
(PID.TID 0000.0001) %MON dynstat_vvel_min             =  -8.4429457461509E-01
(PID.TID 0000.0001) %MON dynstat_vvel_mean            =   1.1918875443399E-03
(PID.TID 0000.0001) %MON dynstat_vvel_sd              =   2.0514616730518E-02
(PID.TID 0000.0001) %MON dynstat_vvel_del2            =   7.9709617477595E-06
(PID.TID 0000.0001) %MON dynstat_wvel_max             =   3.7397769418778E-04
(PID.TID 0000.0001) %MON dynstat_wvel_min             =  -8.3906593040828E-04
(PID.TID 0000.0001) %MON dynstat_wvel_mean            =   1.3337057578260E-08
(PID.TID 0000.0001) %MON dynstat_wvel_sd              =   1.9118244839523E-05
(PID.TID 0000.0001) %MON dynstat_wvel_del2            =   1.5199903707649E-08
(PID.TID 0000.0001) %MON dynstat_theta_max            =   3.2279092985506E+01
(PID.TID 0000.0001) %MON dynstat_theta_min            =  -2.0820035754789E+00
(PID.TID 0000.0001) %MON dynstat_theta_mean           =   3.5904082434274E+00
(PID.TID 0000.0001) %MON dynstat_theta_sd             =   4.4363386270345E+00
(PID.TID 0000.0001) %MON dynstat_theta_del2           =   9.6005721538199E-05
(PID.TID 0000.0001) %MON dynstat_salt_max             =   4.0711557475186E+01
(PID.TID 0000.0001) %MON dynstat_salt_min             =   1.0915891625992E+01
(PID.TID 0000.0001) %MON dynstat_salt_mean            =   3.4725577972542E+01
(PID.TID 0000.0001) %MON dynstat_salt_sd              =   3.7701147722066E-01
(PID.TID 0000.0001) %MON dynstat_salt_del2            =   3.3666478083943E-05
(PID.TID 0000.0001) %MON dynstat_sst_max              =   3.2279092985506E+01
(PID.TID 0000.0001) %MON dynstat_sst_min              =  -1.8085434614387E+00
(PID.TID 0000.0001) %MON dynstat_sst_mean             =   1.8487942516215E+01
(PID.TID 0000.0001) %MON dynstat_sst_sd               =   1.0186755824357E+01
(PID.TID 0000.0001) %MON dynstat_sst_del2             =   8.1573153656871E-04
(PID.TID 0000.0001) %MON dynstat_sss_max              =   3.9118368102104E+01
(PID.TID 0000.0001) %MON dynstat_sss_min              =   1.0915891625992E+01
(PID.TID 0000.0001) %MON dynstat_sss_mean             =   3.4699579810647E+01
(PID.TID 0000.0001) %MON dynstat_sss_sd               =   1.1544060618402E+00
(PID.TID 0000.0001) %MON dynstat_sss_del2             =   9.9395969099664E-04
(PID.TID 0000.0001) %MON forcing_qnet_max             =   7.1364691162109E+02
(PID.TID 0000.0001) %MON forcing_qnet_min             =  -9.3939916992188E+02
(PID.TID 0000.0001) %MON forcing_qnet_mean            =  -1.6031115024759E+01
(PID.TID 0000.0001) %MON forcing_qnet_sd              =   1.9950823171995E+02
(PID.TID 0000.0001) %MON forcing_qnet_del2            =   3.1339739784766E-01
(PID.TID 0000.0001) %MON forcing_qsw_max              =   0.0000000000000E+00
(PID.TID 0000.0001) %MON forcing_qsw_min              =  -1.1008903118702E+02
(PID.TID 0000.0001) %MON forcing_qsw_mean             =  -2.1542530649874E+01
(PID.TID 0000.0001) %MON forcing_qsw_sd               =   3.0370372313741E+01
(PID.TID 0000.0001) %MON forcing_qsw_del2             =   2.2051609810902E-02
(PID.TID 0000.0001) %MON forcing_empmr_max            =   1.5016004908830E-03
(PID.TID 0000.0001) %MON forcing_empmr_min            =  -3.7230689078569E-02
(PID.TID 0000.0001) %MON forcing_empmr_mean           =   1.2952146974780E-06
(PID.TID 0000.0001) %MON forcing_empmr_sd             =   1.7818186710376E-04
(PID.TID 0000.0001) %MON forcing_empmr_del2           =   1.7153523069988E-06
(PID.TID 0000.0001) %MON forcing_fu_max               =   8.6142569780350E-01
(PID.TID 0000.0001) %MON forcing_fu_min               =  -4.9661674773870E-01
(PID.TID 0000.0001) %MON forcing_fu_mean              =   7.5432466692833E-03
(PID.TID 0000.0001) %MON forcing_fu_sd                =   9.4135139983928E-02
(PID.TID 0000.0001) %MON forcing_fu_del2              =   1.2030772949726E-04
(PID.TID 0000.0001) %MON forcing_fv_max               =   7.6538124680519E-01
(PID.TID 0000.0001) %MON forcing_fv_min               =  -7.3149207603014E-01
(PID.TID 0000.0001) %MON forcing_fv_mean              =  -1.9531840814704E-03
(PID.TID 0000.0001) %MON forcing_fv_sd                =   9.4420723345004E-02
(PID.TID 0000.0001) %MON forcing_fv_del2              =   1.1116477124157E-04
(PID.TID 0000.0001) %MON trAdv_CFL_u_max              =   1.2047094953046E-02
(PID.TID 0000.0001) %MON trAdv_CFL_v_max              =   1.6458267714622E-02
(PID.TID 0000.0001) %MON trAdv_CFL_w_max              =   2.1059357320033E-02
(PID.TID 0000.0001) %MON advcfl_uvel_max              =   1.1059599465555E-02
(PID.TID 0000.0001) %MON advcfl_vvel_max              =   1.6833336594349E-02
(PID.TID 0000.0001) %MON advcfl_wvel_max              =   1.9890051700032E-02
(PID.TID 0000.0001) %MON advcfl_W_hf_max              =   2.0137982666202E-02
(PID.TID 0000.0001) %MON pe_b_mean                    =   5.3448977101031E-04
(PID.TID 0000.0001) %MON ke_max                       =   4.3004405132720E-01
(PID.TID 0000.0001) %MON ke_mean                      =   3.7869368215755E-04
(PID.TID 0000.0001) %MON ke_vol                       =   1.3349976011235E+18
(PID.TID 0000.0001) %MON vort_r_min                   =  -1.7327922814921E-05
(PID.TID 0000.0001) %MON vort_r_max                   =   2.6380867368835E-05
(PID.TID 0000.0001) %MON vort_a_mean                  =  -1.9727864647440E-05
(PID.TID 0000.0001) %MON vort_a_sd                    =   7.4542944782275E-05
(PID.TID 0000.0001) %MON vort_p_mean                  =  -2.1760536749823E-05
(PID.TID 0000.0001) %MON vort_p_sd                    =   9.7246780990795E-05
(PID.TID 0000.0001) %MON surfExpan_theta_mean         =   6.1370525294516E-08
(PID.TID 0000.0001) %MON surfExpan_salt_mean          =   2.2870160684548E-08
(PID.TID 0000.0001) // =======================================================
(PID.TID 0000.0001) // End MONITOR dynamic field statistics
(PID.TID 0000.0001) // =======================================================
(PID.TID 0000.0001) // =======================================================
(PID.TID 0000.0001) // Begin MONITOR SEAICE statistics
(PID.TID 0000.0001) // =======================================================
(PID.TID 0000.0001) %MON seaice_tsnumber              =                   400
(PID.TID 0000.0001) %MON seaice_time_sec              =   3.6000000000000E+05
(PID.TID 0000.0001) %MON seaice_uice_max              =   4.0000000000000E-01
(PID.TID 0000.0001) %MON seaice_uice_min              =  -4.0000000000000E-01
(PID.TID 0000.0001) %MON seaice_uice_mean             =  -8.3054598624025E-03
(PID.TID 0000.0001) %MON seaice_uice_sd               =   1.9802383574176E-01
(PID.TID 0000.0001) %MON seaice_uice_del2             =   2.2931571122150E-04
(PID.TID 0000.0001) %MON seaice_vice_max              =   4.0000000000000E-01
(PID.TID 0000.0001) %MON seaice_vice_min              =  -4.0000000000000E-01
(PID.TID 0000.0001) %MON seaice_vice_mean             =  -2.1960776359499E-02
(PID.TID 0000.0001) %MON seaice_vice_sd               =   2.1302038025672E-01
(PID.TID 0000.0001) %MON seaice_vice_del2             =   2.3932563818061E-04
(PID.TID 0000.0001) %MON seaice_area_max              =   1.0000000000000E+00
(PID.TID 0000.0001) %MON seaice_area_min              =   0.0000000000000E+00
(PID.TID 0000.0001) %MON seaice_area_mean             =   6.7532205018918E-02
(PID.TID 0000.0001) %MON seaice_area_sd               =   2.3282606312135E-01
(PID.TID 0000.0001) %MON seaice_area_del2             =   4.1945167472050E-04
(PID.TID 0000.0001) %MON seaice_heff_max              =   2.5112702275626E+01
(PID.TID 0000.0001) %MON seaice_heff_min              =   0.0000000000000E+00
(PID.TID 0000.0001) %MON seaice_heff_mean             =   2.1438133368958E-01
(PID.TID 0000.0001) %MON seaice_heff_sd               =   1.0683797956285E+00
(PID.TID 0000.0001) %MON seaice_heff_del2             =   3.8760218646340E-03
(PID.TID 0000.0001) %MON seaice_hsnow_max             =   8.2944447548944E+00
(PID.TID 0000.0001) %MON seaice_hsnow_min             =   0.0000000000000E+00
(PID.TID 0000.0001) %MON seaice_hsnow_mean            =   2.4292855712961E-02
(PID.TID 0000.0001) %MON seaice_hsnow_sd              =   1.5682793445911E-01
(PID.TID 0000.0001) %MON seaice_hsnow_del2            =   1.2458685828144E-03
(PID.TID 0000.0001) // =======================================================
(PID.TID 0000.0001) // End MONITOR SEAICE statistics
(PID.TID 0000.0001) // =======================================================
 Computing Diagnostic #     86  oceQnet      Counter:       4   Parms: SM      U1      
 Computing Diagnostic #     87  oceQsw       Counter:       4   Parms: SM      U1      
 Computing Diagnostic #     84  oceFWflx     Counter:       4   Parms: SM      U1      
 Computing Diagnostic #     85  oceSflux     Counter:       4   Parms: SM      U1      
 Computing Diagnostic #     80  oceTAUX      Counter:       4   Parms: UU      U1      
           Vector  Mate for  oceTAUX      Diagnostic #     81  oceTAUY  exists 
 Computing Diagnostic #     81  oceTAUY      Counter:       4   Parms: VV      U1      
           Vector  Mate for  oceTAUY      Diagnostic #     80  oceTAUX  exists 
 Computing Diagnostic #     26  THETA        Counter:       4   Parms: SMR     MR      
 Computing Diagnostic #     27  SALT         Counter:       4   Parms: SMR     MR      
 Computing Diagnostic #     30  UVEL         Counter:       4   Parms: UUR     MR      
           Vector  Mate for  UVEL         Diagnostic #     31  VVEL     exists 
 Computing Diagnostic #     31  VVEL         Counter:       4   Parms: VVR     MR      
           Vector  Mate for  VVEL         Diagnostic #     30  UVEL     exists 
 Computing Diagnostic #    214  SIarea       Counter:       4   Parms: SM      M1      
 Computing Diagnostic #    217  SIheff       Counter:       4   Parms: SM      M1      
 Computing Diagnostic #    219  SIhsnow      Counter:       4   Parms: SM      M1      
 Computing Diagnostic #     83  sIceLoad     Counter:       4   Parms: SM      U1      
 Computing Diagnostic #    223  SIuice       Counter:       4   Parms: UU      M1      
           Vector  Mate for  SIuice       Diagnostic #    224  SIvice   exists 
 Computing Diagnostic #    224  SIvice       Counter:       4   Parms: VV      M1      
           Vector  Mate for  SIvice       Diagnostic #    223  SIuice   exists 
 Computing Diagnostic #    225  SItaux       Counter:       4   Parms: UU      U1      
           Vector  Mate for  SItaux       Diagnostic #    226  SItauy   exists 
 Computing Diagnostic #    226  SItauy       Counter:       4   Parms: VV      U1      
           Vector  Mate for  SItauy       Diagnostic #    225  SItaux   exists 
 Computing Diagnostic #    285  SIareaN      Counter:       4   Parms: SM      MX      
 Computing Diagnostic #    284  SIheffN      Counter:       4   Parms: SM      MX      
 Computing Diagnostic #    286  SIhsnowN     Counter:       4   Parms: SM      MX      
 Compute Stats, Diag. #    214  SIarea    vol(   0 ): 3.580E+14  Parms: SM      M1      
 Compute Stats, Diag. #    217  SIheff    vol(   0 ): 3.580E+14  Parms: SM      M1      
 Compute Stats, Diag. #    219  SIhsnow   vol(   0 ): 3.580E+14  Parms: SM      M1      
 Compute Stats, Diag. #     83  sIceLoad  vol(   0 ): 3.580E+14  Parms: SM      U1      
 Compute Stats, Diag. #    223  SIuice    vol(   0 ): 3.513E+14  Parms: UU      M1      
 Compute Stats, Diag. #    224  SIvice    vol(   0 ): 3.508E+14  Parms: VV      M1      
 Compute Stats, Diag. #    225  SItaux    vol(   0 ): 3.513E+14  Parms: UU      U1      
 Compute Stats, Diag. #    226  SItauy    vol(   0 ): 3.508E+14  Parms: VV      U1      
 cg2d: Sum(rhs),rhsMax =   2.44268246606136E+01  2.87668950140923E-01
 Compute Stats, Diag. #    214  SIarea    vol(   0 ): 3.580E+14  Parms: SM      M1      
 Compute Stats, Diag. #    217  SIheff    vol(   0 ): 3.580E+14  Parms: SM      M1      
 Compute Stats, Diag. #    219  SIhsnow   vol(   0 ): 3.580E+14  Parms: SM      M1      
 Compute Stats, Diag. #     83  sIceLoad  vol(   0 ): 3.580E+14  Parms: SM      U1      
 Compute Stats, Diag. #    223  SIuice    vol(   0 ): 3.513E+14  Parms: UU      M1      
 Compute Stats, Diag. #    224  SIvice    vol(   0 ): 3.508E+14  Parms: VV      M1      
 Compute Stats, Diag. #    225  SItaux    vol(   0 ): 3.513E+14  Parms: UU      U1      
 Compute Stats, Diag. #    226  SItauy    vol(   0 ): 3.508E+14  Parms: VV      U1      
 cg2d: Sum(rhs),rhsMax =   2.44666345882395E+01  2.87729606243742E-01
 Compute Stats, Diag. #    214  SIarea    vol(   0 ): 3.580E+14  Parms: SM      M1      
 Compute Stats, Diag. #    217  SIheff    vol(   0 ): 3.580E+14  Parms: SM      M1      
 Compute Stats, Diag. #    219  SIhsnow   vol(   0 ): 3.580E+14  Parms: SM      M1      
 Compute Stats, Diag. #     83  sIceLoad  vol(   0 ): 3.580E+14  Parms: SM      U1      
 Compute Stats, Diag. #    223  SIuice    vol(   0 ): 3.513E+14  Parms: UU      M1      
 Compute Stats, Diag. #    224  SIvice    vol(   0 ): 3.508E+14  Parms: VV      M1      
 Compute Stats, Diag. #    225  SItaux    vol(   0 ): 3.513E+14  Parms: UU      U1      
 Compute Stats, Diag. #    226  SItauy    vol(   0 ): 3.508E+14  Parms: VV      U1      
 cg2d: Sum(rhs),rhsMax =   2.45062431908731E+01  2.87792860223146E-01
 Compute Stats, Diag. #    214  SIarea    vol(   0 ): 3.580E+14  Parms: SM      M1      
 Compute Stats, Diag. #    217  SIheff    vol(   0 ): 3.580E+14  Parms: SM      M1      
 Compute Stats, Diag. #    219  SIhsnow   vol(   0 ): 3.580E+14  Parms: SM      M1      
 Compute Stats, Diag. #     83  sIceLoad  vol(   0 ): 3.580E+14  Parms: SM      U1      
 Compute Stats, Diag. #    223  SIuice    vol(   0 ): 3.513E+14  Parms: UU      M1      
 Compute Stats, Diag. #    224  SIvice    vol(   0 ): 3.508E+14  Parms: VV      M1      
 Compute Stats, Diag. #    225  SItaux    vol(   0 ): 3.513E+14  Parms: UU      U1      
 Compute Stats, Diag. #    226  SItauy    vol(   0 ): 3.508E+14  Parms: VV      U1      
 cg2d: Sum(rhs),rhsMax =   2.45464555211732E+01  2.87858141520925E-01
 Computing Diagnostic #     86  oceQnet      Counter:       4   Parms: SM      U1      
 Computing Diagnostic #     87  oceQsw       Counter:       4   Parms: SM      U1      
 Computing Diagnostic #     84  oceFWflx     Counter:       4   Parms: SM      U1      
 Computing Diagnostic #     85  oceSflux     Counter:       4   Parms: SM      U1      
 Computing Diagnostic #     80  oceTAUX      Counter:       4   Parms: UU      U1      
           Vector  Mate for  oceTAUX      Diagnostic #     81  oceTAUY  exists 
 Computing Diagnostic #     81  oceTAUY      Counter:       4   Parms: VV      U1      
           Vector  Mate for  oceTAUY      Diagnostic #     80  oceTAUX  exists 
 Computing Diagnostic #     26  THETA        Counter:       4   Parms: SMR     MR      
 Computing Diagnostic #     27  SALT         Counter:       4   Parms: SMR     MR      
 Computing Diagnostic #     30  UVEL         Counter:       4   Parms: UUR     MR      
           Vector  Mate for  UVEL         Diagnostic #     31  VVEL     exists 
 Computing Diagnostic #     31  VVEL         Counter:       4   Parms: VVR     MR      
           Vector  Mate for  VVEL         Diagnostic #     30  UVEL     exists 
 Computing Diagnostic #    214  SIarea       Counter:       4   Parms: SM      M1      
 Computing Diagnostic #    217  SIheff       Counter:       4   Parms: SM      M1      
 Computing Diagnostic #    219  SIhsnow      Counter:       4   Parms: SM      M1      
 Computing Diagnostic #     83  sIceLoad     Counter:       4   Parms: SM      U1      
 Computing Diagnostic #    223  SIuice       Counter:       4   Parms: UU      M1      
           Vector  Mate for  SIuice       Diagnostic #    224  SIvice   exists 
 Computing Diagnostic #    224  SIvice       Counter:       4   Parms: VV      M1      
           Vector  Mate for  SIvice       Diagnostic #    223  SIuice   exists 
 Computing Diagnostic #    225  SItaux       Counter:       4   Parms: UU      U1      
           Vector  Mate for  SItaux       Diagnostic #    226  SItauy   exists 
 Computing Diagnostic #    226  SItauy       Counter:       4   Parms: VV      U1      
           Vector  Mate for  SItauy       Diagnostic #    225  SItaux   exists 
 Computing Diagnostic #    285  SIareaN      Counter:       4   Parms: SM      MX      
 Computing Diagnostic #    284  SIheffN      Counter:       4   Parms: SM      MX      
 Computing Diagnostic #    286  SIhsnowN     Counter:       4   Parms: SM      MX      
 Compute Stats, Diag. #    214  SIarea    vol(   0 ): 3.580E+14  Parms: SM      M1      
 Compute Stats, Diag. #    217  SIheff    vol(   0 ): 3.580E+14  Parms: SM      M1      
 Compute Stats, Diag. #    219  SIhsnow   vol(   0 ): 3.580E+14  Parms: SM      M1      
 Compute Stats, Diag. #     83  sIceLoad  vol(   0 ): 3.580E+14  Parms: SM      U1      
 Compute Stats, Diag. #    223  SIuice    vol(   0 ): 3.513E+14  Parms: UU      M1      
 Compute Stats, Diag. #    224  SIvice    vol(   0 ): 3.508E+14  Parms: VV      M1      
 Compute Stats, Diag. #    225  SItaux    vol(   0 ): 3.513E+14  Parms: UU      U1      
 Compute Stats, Diag. #    226  SItauy    vol(   0 ): 3.508E+14  Parms: VV      U1      
 cg2d: Sum(rhs),rhsMax =   2.45916455482059E+01  2.87926088113687E-01
 Compute Stats, Diag. #    214  SIarea    vol(   0 ): 3.580E+14  Parms: SM      M1      
 Compute Stats, Diag. #    217  SIheff    vol(   0 ): 3.580E+14  Parms: SM      M1      
 Compute Stats, Diag. #    219  SIhsnow   vol(   0 ): 3.580E+14  Parms: SM      M1      
 Compute Stats, Diag. #     83  sIceLoad  vol(   0 ): 3.580E+14  Parms: SM      U1      
 Compute Stats, Diag. #    223  SIuice    vol(   0 ): 3.513E+14  Parms: UU      M1      
 Compute Stats, Diag. #    224  SIvice    vol(   0 ): 3.508E+14  Parms: VV      M1      
 Compute Stats, Diag. #    225  SItaux    vol(   0 ): 3.513E+14  Parms: UU      U1      
 Compute Stats, Diag. #    226  SItauy    vol(   0 ): 3.508E+14  Parms: VV      U1      
 cg2d: Sum(rhs),rhsMax =   2.46341751311387E+01  2.87997648581712E-01
 Compute Stats, Diag. #    214  SIarea    vol(   0 ): 3.580E+14  Parms: SM      M1      
 Compute Stats, Diag. #    217  SIheff    vol(   0 ): 3.580E+14  Parms: SM      M1      
 Compute Stats, Diag. #    219  SIhsnow   vol(   0 ): 3.580E+14  Parms: SM      M1      
 Compute Stats, Diag. #     83  sIceLoad  vol(   0 ): 3.580E+14  Parms: SM      U1      
 Compute Stats, Diag. #    223  SIuice    vol(   0 ): 3.513E+14  Parms: UU      M1      
 Compute Stats, Diag. #    224  SIvice    vol(   0 ): 3.508E+14  Parms: VV      M1      
 Compute Stats, Diag. #    225  SItaux    vol(   0 ): 3.513E+14  Parms: UU      U1      
 Compute Stats, Diag. #    226  SItauy    vol(   0 ): 3.508E+14  Parms: VV      U1      
 cg2d: Sum(rhs),rhsMax =   2.46743863845434E+01  2.88072411930216E-01
 Compute Stats, Diag. #    214  SIarea    vol(   0 ): 3.580E+14  Parms: SM      M1      
 Compute Stats, Diag. #    217  SIheff    vol(   0 ): 3.580E+14  Parms: SM      M1      
 Compute Stats, Diag. #    219  SIhsnow   vol(   0 ): 3.580E+14  Parms: SM      M1      
 Compute Stats, Diag. #     83  sIceLoad  vol(   0 ): 3.580E+14  Parms: SM      U1      
 Compute Stats, Diag. #    223  SIuice    vol(   0 ): 3.513E+14  Parms: UU      M1      
 Compute Stats, Diag. #    224  SIvice    vol(   0 ): 3.508E+14  Parms: VV      M1      
 Compute Stats, Diag. #    225  SItaux    vol(   0 ): 3.513E+14  Parms: UU      U1      
 Compute Stats, Diag. #    226  SItauy    vol(   0 ): 3.508E+14  Parms: VV      U1      
 cg2d: Sum(rhs),rhsMax =   2.47194158484897E+01  2.88150865610785E-01
(PID.TID 0000.0001)      cg2d_init_res =   6.89325166209715E-02
(PID.TID 0000.0001)      cg2d_iters(min,last) =      -1      27
(PID.TID 0000.0001)      cg2d_last_res =   2.13020723122227E-05
(PID.TID 0000.0001) // =======================================================
(PID.TID 0000.0001) // Begin MONITOR dynamic field statistics
(PID.TID 0000.0001) // =======================================================
(PID.TID 0000.0001) %MON time_tsnumber                =                   408
(PID.TID 0000.0001) %MON time_secondsf                =   3.6720000000000E+05
(PID.TID 0000.0001) %MON dynstat_eta_max              =   1.0407722417438E+00
(PID.TID 0000.0001) %MON dynstat_eta_min              =  -1.8760527326235E+00
(PID.TID 0000.0001) %MON dynstat_eta_mean             =  -7.8195407186370E-04
(PID.TID 0000.0001) %MON dynstat_eta_sd               =   6.3735734596990E-01
(PID.TID 0000.0001) %MON dynstat_eta_del2             =   5.7662530835479E-05
(PID.TID 0000.0001) %MON dynstat_uvel_max             =   8.8936542777198E-01
(PID.TID 0000.0001) %MON dynstat_uvel_min             =  -5.8216193924820E-01
(PID.TID 0000.0001) %MON dynstat_uvel_mean            =   1.1763818631963E-03
(PID.TID 0000.0001) %MON dynstat_uvel_sd              =   1.8944259444770E-02
(PID.TID 0000.0001) %MON dynstat_uvel_del2            =   7.7473721747727E-06
(PID.TID 0000.0001) %MON dynstat_vvel_max             =   9.3025960544012E-01
(PID.TID 0000.0001) %MON dynstat_vvel_min             =  -8.4497476590878E-01
(PID.TID 0000.0001) %MON dynstat_vvel_mean            =   1.1944533007480E-03
(PID.TID 0000.0001) %MON dynstat_vvel_sd              =   2.0471158709076E-02
(PID.TID 0000.0001) %MON dynstat_vvel_del2            =   7.9368195689837E-06
(PID.TID 0000.0001) %MON dynstat_wvel_max             =   3.6439763916341E-04
(PID.TID 0000.0001) %MON dynstat_wvel_min             =  -8.5299669633059E-04
(PID.TID 0000.0001) %MON dynstat_wvel_mean            =   1.1441035494903E-08
(PID.TID 0000.0001) %MON dynstat_wvel_sd              =   1.8923846763665E-05
(PID.TID 0000.0001) %MON dynstat_wvel_del2            =   1.5073092064386E-08
(PID.TID 0000.0001) %MON dynstat_theta_max            =   3.2288040504555E+01
(PID.TID 0000.0001) %MON dynstat_theta_min            =  -2.0832809796538E+00
(PID.TID 0000.0001) %MON dynstat_theta_mean           =   3.5904116134087E+00
(PID.TID 0000.0001) %MON dynstat_theta_sd             =   4.4363777734304E+00
(PID.TID 0000.0001) %MON dynstat_theta_del2           =   9.5913229496914E-05
(PID.TID 0000.0001) %MON dynstat_salt_max             =   4.0711558634035E+01
(PID.TID 0000.0001) %MON dynstat_salt_min             =   1.0953045852461E+01
(PID.TID 0000.0001) %MON dynstat_salt_mean            =   3.4725578018954E+01
(PID.TID 0000.0001) %MON dynstat_salt_sd              =   3.7701078261733E-01
(PID.TID 0000.0001) %MON dynstat_salt_del2            =   3.3419311318704E-05
(PID.TID 0000.0001) %MON dynstat_sst_max              =   3.2288040504555E+01
(PID.TID 0000.0001) %MON dynstat_sst_min              =  -1.8093546398048E+00
(PID.TID 0000.0001) %MON dynstat_sst_mean             =   1.8488747956536E+01
(PID.TID 0000.0001) %MON dynstat_sst_sd               =   1.0189167734829E+01
(PID.TID 0000.0001) %MON dynstat_sst_del2             =   8.1770275872093E-04
(PID.TID 0000.0001) %MON dynstat_sss_max              =   3.9117662538885E+01
(PID.TID 0000.0001) %MON dynstat_sss_min              =   1.0953045852461E+01
(PID.TID 0000.0001) %MON dynstat_sss_mean             =   3.4699711090361E+01
(PID.TID 0000.0001) %MON dynstat_sss_sd               =   1.1546803583994E+00
(PID.TID 0000.0001) %MON dynstat_sss_del2             =   9.8067400198940E-04
(PID.TID 0000.0001) %MON forcing_qnet_max             =   7.1176507568359E+02
(PID.TID 0000.0001) %MON forcing_qnet_min             =  -9.4801537423356E+02
(PID.TID 0000.0001) %MON forcing_qnet_mean            =  -2.2148084918293E+00
(PID.TID 0000.0001) %MON forcing_qnet_sd              =   1.9275407023432E+02
(PID.TID 0000.0001) %MON forcing_qnet_del2            =   3.1691129586906E-01
(PID.TID 0000.0001) %MON forcing_qsw_max              =   0.0000000000000E+00
(PID.TID 0000.0001) %MON forcing_qsw_min              =  -1.1161470251566E+02
(PID.TID 0000.0001) %MON forcing_qsw_mean             =  -1.9236822474079E+01
(PID.TID 0000.0001) %MON forcing_qsw_sd               =   2.8576648320982E+01
(PID.TID 0000.0001) %MON forcing_qsw_del2             =   2.2468478468263E-02
(PID.TID 0000.0001) %MON forcing_empmr_max            =   2.2401260212064E-03
(PID.TID 0000.0001) %MON forcing_empmr_min            =  -3.8402650505304E-02
(PID.TID 0000.0001) %MON forcing_empmr_mean           =   1.6285934514162E-06
(PID.TID 0000.0001) %MON forcing_empmr_sd             =   1.8551031471459E-04
(PID.TID 0000.0001) %MON forcing_empmr_del2           =   1.9090624392723E-06
(PID.TID 0000.0001) %MON forcing_fu_max               =   8.5526305437088E-01
(PID.TID 0000.0001) %MON forcing_fu_min               =  -4.9192622303963E-01
(PID.TID 0000.0001) %MON forcing_fu_mean              =   7.9039116244328E-03
(PID.TID 0000.0001) %MON forcing_fu_sd                =   9.4764333978259E-02
(PID.TID 0000.0001) %MON forcing_fu_del2              =   1.2155402271998E-04
(PID.TID 0000.0001) %MON forcing_fv_max               =   7.0608672499657E-01
(PID.TID 0000.0001) %MON forcing_fv_min               =  -6.6963761302297E-01
(PID.TID 0000.0001) %MON forcing_fv_mean              =  -2.4418138564410E-03
(PID.TID 0000.0001) %MON forcing_fv_sd                =   9.3969260618831E-02
(PID.TID 0000.0001) %MON forcing_fv_del2              =   1.1058009159601E-04
(PID.TID 0000.0001) %MON trAdv_CFL_u_max              =   1.3523208468140E-02
(PID.TID 0000.0001) %MON trAdv_CFL_v_max              =   1.6169153758568E-02
(PID.TID 0000.0001) %MON trAdv_CFL_w_max              =   2.1056951961081E-02
(PID.TID 0000.0001) %MON advcfl_uvel_max              =   1.2599416611555E-02
(PID.TID 0000.0001) %MON advcfl_vvel_max              =   1.6512949109171E-02
(PID.TID 0000.0001) %MON advcfl_wvel_max              =   1.9462327910779E-02
(PID.TID 0000.0001) %MON advcfl_W_hf_max              =   2.0372164569967E-02
(PID.TID 0000.0001) %MON pe_b_mean                    =   5.3434901623016E-04
(PID.TID 0000.0001) %MON ke_max                       =   4.1305309561590E-01
(PID.TID 0000.0001) %MON ke_mean                      =   3.7648180961488E-04
(PID.TID 0000.0001) %MON ke_vol                       =   1.3349975974989E+18
(PID.TID 0000.0001) %MON vort_r_min                   =  -1.9105399199890E-05
(PID.TID 0000.0001) %MON vort_r_max                   =   2.5902317791882E-05
(PID.TID 0000.0001) %MON vort_a_mean                  =  -1.9727864647440E-05
(PID.TID 0000.0001) %MON vort_a_sd                    =   7.4542949432207E-05
(PID.TID 0000.0001) %MON vort_p_mean                  =  -2.1760536820792E-05
(PID.TID 0000.0001) %MON vort_p_sd                    =   9.7246807360201E-05
(PID.TID 0000.0001) %MON surfExpan_theta_mean         =  -7.7004088211596E-10
(PID.TID 0000.0001) %MON surfExpan_salt_mean          =   1.6320763170613E-08
(PID.TID 0000.0001) // =======================================================
(PID.TID 0000.0001) // End MONITOR dynamic field statistics
(PID.TID 0000.0001) // =======================================================
(PID.TID 0000.0001) // =======================================================
(PID.TID 0000.0001) // Begin MONITOR SEAICE statistics
(PID.TID 0000.0001) // =======================================================
(PID.TID 0000.0001) %MON seaice_tsnumber              =                   408
(PID.TID 0000.0001) %MON seaice_time_sec              =   3.6720000000000E+05
(PID.TID 0000.0001) %MON seaice_uice_max              =   4.0000000000000E-01
(PID.TID 0000.0001) %MON seaice_uice_min              =  -4.0000000000000E-01
(PID.TID 0000.0001) %MON seaice_uice_mean             =  -8.3054598624025E-03
(PID.TID 0000.0001) %MON seaice_uice_sd               =   1.9802383574176E-01
(PID.TID 0000.0001) %MON seaice_uice_del2             =   2.2931571122150E-04
(PID.TID 0000.0001) %MON seaice_vice_max              =   4.0000000000000E-01
(PID.TID 0000.0001) %MON seaice_vice_min              =  -4.0000000000000E-01
(PID.TID 0000.0001) %MON seaice_vice_mean             =  -2.1960776359499E-02
(PID.TID 0000.0001) %MON seaice_vice_sd               =   2.1302038025672E-01
(PID.TID 0000.0001) %MON seaice_vice_del2             =   2.3932563818061E-04
(PID.TID 0000.0001) %MON seaice_area_max              =   1.0000000000000E+00
(PID.TID 0000.0001) %MON seaice_area_min              =   0.0000000000000E+00
(PID.TID 0000.0001) %MON seaice_area_mean             =   6.7473516438943E-02
(PID.TID 0000.0001) %MON seaice_area_sd               =   2.3271784517938E-01
(PID.TID 0000.0001) %MON seaice_area_del2             =   4.1853998487946E-04
(PID.TID 0000.0001) %MON seaice_heff_max              =   2.5109579879092E+01
(PID.TID 0000.0001) %MON seaice_heff_min              =   0.0000000000000E+00
(PID.TID 0000.0001) %MON seaice_heff_mean             =   2.1432894804178E-01
(PID.TID 0000.0001) %MON seaice_heff_sd               =   1.0683228214734E+00
(PID.TID 0000.0001) %MON seaice_heff_del2             =   3.8751495356382E-03
(PID.TID 0000.0001) %MON seaice_hsnow_max             =   8.2934191667882E+00
(PID.TID 0000.0001) %MON seaice_hsnow_min             =   0.0000000000000E+00
(PID.TID 0000.0001) %MON seaice_hsnow_mean            =   2.4283150059887E-02
(PID.TID 0000.0001) %MON seaice_hsnow_sd              =   1.5680976717414E-01
(PID.TID 0000.0001) %MON seaice_hsnow_del2            =   1.2456885303790E-03
(PID.TID 0000.0001) // =======================================================
(PID.TID 0000.0001) // End MONITOR SEAICE statistics
(PID.TID 0000.0001) // =======================================================
 Computing Diagnostic #     86  oceQnet      Counter:       4   Parms: SM      U1      
 Computing Diagnostic #     87  oceQsw       Counter:       4   Parms: SM      U1      
 Computing Diagnostic #     84  oceFWflx     Counter:       4   Parms: SM      U1      
 Computing Diagnostic #     85  oceSflux     Counter:       4   Parms: SM      U1      
 Computing Diagnostic #     80  oceTAUX      Counter:       4   Parms: UU      U1      
           Vector  Mate for  oceTAUX      Diagnostic #     81  oceTAUY  exists 
 Computing Diagnostic #     81  oceTAUY      Counter:       4   Parms: VV      U1      
           Vector  Mate for  oceTAUY      Diagnostic #     80  oceTAUX  exists 
 Computing Diagnostic #     26  THETA        Counter:       4   Parms: SMR     MR      
 Computing Diagnostic #     27  SALT         Counter:       4   Parms: SMR     MR      
 Computing Diagnostic #     30  UVEL         Counter:       4   Parms: UUR     MR      
           Vector  Mate for  UVEL         Diagnostic #     31  VVEL     exists 
 Computing Diagnostic #     31  VVEL         Counter:       4   Parms: VVR     MR      
           Vector  Mate for  VVEL         Diagnostic #     30  UVEL     exists 
 Computing Diagnostic #    214  SIarea       Counter:       4   Parms: SM      M1      
 Computing Diagnostic #    217  SIheff       Counter:       4   Parms: SM      M1      
 Computing Diagnostic #    219  SIhsnow      Counter:       4   Parms: SM      M1      
 Computing Diagnostic #     83  sIceLoad     Counter:       4   Parms: SM      U1      
 Computing Diagnostic #    223  SIuice       Counter:       4   Parms: UU      M1      
           Vector  Mate for  SIuice       Diagnostic #    224  SIvice   exists 
 Computing Diagnostic #    224  SIvice       Counter:       4   Parms: VV      M1      
           Vector  Mate for  SIvice       Diagnostic #    223  SIuice   exists 
 Computing Diagnostic #    225  SItaux       Counter:       4   Parms: UU      U1      
           Vector  Mate for  SItaux       Diagnostic #    226  SItauy   exists 
 Computing Diagnostic #    226  SItauy       Counter:       4   Parms: VV      U1      
           Vector  Mate for  SItauy       Diagnostic #    225  SItaux   exists 
 Computing Diagnostic #    285  SIareaN      Counter:       4   Parms: SM      MX      
 Computing Diagnostic #    284  SIheffN      Counter:       4   Parms: SM      MX      
 Computing Diagnostic #    286  SIhsnowN     Counter:       4   Parms: SM      MX      
 Compute Stats, Diag. #    214  SIarea    vol(   0 ): 3.580E+14  Parms: SM      M1      
 Compute Stats, Diag. #    217  SIheff    vol(   0 ): 3.580E+14  Parms: SM      M1      
 Compute Stats, Diag. #    219  SIhsnow   vol(   0 ): 3.580E+14  Parms: SM      M1      
 Compute Stats, Diag. #     83  sIceLoad  vol(   0 ): 3.580E+14  Parms: SM      U1      
 Compute Stats, Diag. #    223  SIuice    vol(   0 ): 3.513E+14  Parms: UU      M1      
 Compute Stats, Diag. #    224  SIvice    vol(   0 ): 3.508E+14  Parms: VV      M1      
 Compute Stats, Diag. #    225  SItaux    vol(   0 ): 3.513E+14  Parms: UU      U1      
 Compute Stats, Diag. #    226  SItauy    vol(   0 ): 3.508E+14  Parms: VV      U1      
 cg2d: Sum(rhs),rhsMax =   2.47594762901798E+01  2.88233753920852E-01
 Compute Stats, Diag. #    214  SIarea    vol(   0 ): 3.580E+14  Parms: SM      M1      
 Compute Stats, Diag. #    217  SIheff    vol(   0 ): 3.580E+14  Parms: SM      M1      
 Compute Stats, Diag. #    219  SIhsnow   vol(   0 ): 3.580E+14  Parms: SM      M1      
 Compute Stats, Diag. #     83  sIceLoad  vol(   0 ): 3.580E+14  Parms: SM      U1      
 Compute Stats, Diag. #    223  SIuice    vol(   0 ): 3.513E+14  Parms: UU      M1      
 Compute Stats, Diag. #    224  SIvice    vol(   0 ): 3.508E+14  Parms: VV      M1      
 Compute Stats, Diag. #    225  SItaux    vol(   0 ): 3.513E+14  Parms: UU      U1      
 Compute Stats, Diag. #    226  SItauy    vol(   0 ): 3.508E+14  Parms: VV      U1      
 cg2d: Sum(rhs),rhsMax =   2.47860921164421E+01  2.88320429240653E-01
 Compute Stats, Diag. #    214  SIarea    vol(   0 ): 3.580E+14  Parms: SM      M1      
 Compute Stats, Diag. #    217  SIheff    vol(   0 ): 3.580E+14  Parms: SM      M1      
 Compute Stats, Diag. #    219  SIhsnow   vol(   0 ): 3.580E+14  Parms: SM      M1      
 Compute Stats, Diag. #     83  sIceLoad  vol(   0 ): 3.580E+14  Parms: SM      U1      
 Compute Stats, Diag. #    223  SIuice    vol(   0 ): 3.513E+14  Parms: UU      M1      
 Compute Stats, Diag. #    224  SIvice    vol(   0 ): 3.508E+14  Parms: VV      M1      
 Compute Stats, Diag. #    225  SItaux    vol(   0 ): 3.513E+14  Parms: UU      U1      
 Compute Stats, Diag. #    226  SItauy    vol(   0 ): 3.508E+14  Parms: VV      U1      
 cg2d: Sum(rhs),rhsMax =   2.48092090913213E+01  2.88411337058501E-01
 Compute Stats, Diag. #    214  SIarea    vol(   0 ): 3.580E+14  Parms: SM      M1      
 Compute Stats, Diag. #    217  SIheff    vol(   0 ): 3.580E+14  Parms: SM      M1      
 Compute Stats, Diag. #    219  SIhsnow   vol(   0 ): 3.580E+14  Parms: SM      M1      
 Compute Stats, Diag. #     83  sIceLoad  vol(   0 ): 3.580E+14  Parms: SM      U1      
 Compute Stats, Diag. #    223  SIuice    vol(   0 ): 3.513E+14  Parms: UU      M1      
 Compute Stats, Diag. #    224  SIvice    vol(   0 ): 3.508E+14  Parms: VV      M1      
 Compute Stats, Diag. #    225  SItaux    vol(   0 ): 3.513E+14  Parms: UU      U1      
 Compute Stats, Diag. #    226  SItauy    vol(   0 ): 3.508E+14  Parms: VV      U1      
 cg2d: Sum(rhs),rhsMax =   2.48336147248302E+01  2.88506287142877E-01
 Computing Diagnostic #     86  oceQnet      Counter:       4   Parms: SM      U1      
 Computing Diagnostic #     87  oceQsw       Counter:       4   Parms: SM      U1      
 Computing Diagnostic #     84  oceFWflx     Counter:       4   Parms: SM      U1      
 Computing Diagnostic #     85  oceSflux     Counter:       4   Parms: SM      U1      
 Computing Diagnostic #     80  oceTAUX      Counter:       4   Parms: UU      U1      
           Vector  Mate for  oceTAUX      Diagnostic #     81  oceTAUY  exists 
 Computing Diagnostic #     81  oceTAUY      Counter:       4   Parms: VV      U1      
           Vector  Mate for  oceTAUY      Diagnostic #     80  oceTAUX  exists 
 Computing Diagnostic #     26  THETA        Counter:       4   Parms: SMR     MR      
 Computing Diagnostic #     27  SALT         Counter:       4   Parms: SMR     MR      
 Computing Diagnostic #     30  UVEL         Counter:       4   Parms: UUR     MR      
           Vector  Mate for  UVEL         Diagnostic #     31  VVEL     exists 
 Computing Diagnostic #     31  VVEL         Counter:       4   Parms: VVR     MR      
           Vector  Mate for  VVEL         Diagnostic #     30  UVEL     exists 
 Computing Diagnostic #    214  SIarea       Counter:       4   Parms: SM      M1      
 Computing Diagnostic #    217  SIheff       Counter:       4   Parms: SM      M1      
 Computing Diagnostic #    219  SIhsnow      Counter:       4   Parms: SM      M1      
 Computing Diagnostic #     83  sIceLoad     Counter:       4   Parms: SM      U1      
 Computing Diagnostic #    223  SIuice       Counter:       4   Parms: UU      M1      
           Vector  Mate for  SIuice       Diagnostic #    224  SIvice   exists 
 Computing Diagnostic #    224  SIvice       Counter:       4   Parms: VV      M1      
           Vector  Mate for  SIvice       Diagnostic #    223  SIuice   exists 
 Computing Diagnostic #    225  SItaux       Counter:       4   Parms: UU      U1      
           Vector  Mate for  SItaux       Diagnostic #    226  SItauy   exists 
 Computing Diagnostic #    226  SItauy       Counter:       4   Parms: VV      U1      
           Vector  Mate for  SItauy       Diagnostic #    225  SItaux   exists 
 Computing Diagnostic #    285  SIareaN      Counter:       4   Parms: SM      MX      
 Computing Diagnostic #    284  SIheffN      Counter:       4   Parms: SM      MX      
 Computing Diagnostic #    286  SIhsnowN     Counter:       4   Parms: SM      MX      
 Compute Stats, Diag. #    214  SIarea    vol(   0 ): 3.580E+14  Parms: SM      M1      
 Compute Stats, Diag. #    217  SIheff    vol(   0 ): 3.580E+14  Parms: SM      M1      
 Compute Stats, Diag. #    219  SIhsnow   vol(   0 ): 3.580E+14  Parms: SM      M1      
 Compute Stats, Diag. #     83  sIceLoad  vol(   0 ): 3.580E+14  Parms: SM      U1      
 Compute Stats, Diag. #    223  SIuice    vol(   0 ): 3.513E+14  Parms: UU      M1      
 Compute Stats, Diag. #    224  SIvice    vol(   0 ): 3.508E+14  Parms: VV      M1      
 Compute Stats, Diag. #    225  SItaux    vol(   0 ): 3.513E+14  Parms: UU      U1      
 Compute Stats, Diag. #    226  SItauy    vol(   0 ): 3.508E+14  Parms: VV      U1      
 cg2d: Sum(rhs),rhsMax =   2.48555125156257E+01  2.88605192388911E-01
 Compute Stats, Diag. #    214  SIarea    vol(   0 ): 3.580E+14  Parms: SM      M1      
 Compute Stats, Diag. #    217  SIheff    vol(   0 ): 3.580E+14  Parms: SM      M1      
 Compute Stats, Diag. #    219  SIhsnow   vol(   0 ): 3.580E+14  Parms: SM      M1      
 Compute Stats, Diag. #     83  sIceLoad  vol(   0 ): 3.580E+14  Parms: SM      U1      
 Compute Stats, Diag. #    223  SIuice    vol(   0 ): 3.513E+14  Parms: UU      M1      
 Compute Stats, Diag. #    224  SIvice    vol(   0 ): 3.508E+14  Parms: VV      M1      
 Compute Stats, Diag. #    225  SItaux    vol(   0 ): 3.513E+14  Parms: UU      U1      
 Compute Stats, Diag. #    226  SItauy    vol(   0 ): 3.508E+14  Parms: VV      U1      
 cg2d: Sum(rhs),rhsMax =   2.48752256472778E+01  2.88707954523097E-01
 Compute Stats, Diag. #    214  SIarea    vol(   0 ): 3.580E+14  Parms: SM      M1      
 Compute Stats, Diag. #    217  SIheff    vol(   0 ): 3.580E+14  Parms: SM      M1      
 Compute Stats, Diag. #    219  SIhsnow   vol(   0 ): 3.580E+14  Parms: SM      M1      
 Compute Stats, Diag. #     83  sIceLoad  vol(   0 ): 3.580E+14  Parms: SM      U1      
 Compute Stats, Diag. #    223  SIuice    vol(   0 ): 3.513E+14  Parms: UU      M1      
 Compute Stats, Diag. #    224  SIvice    vol(   0 ): 3.508E+14  Parms: VV      M1      
 Compute Stats, Diag. #    225  SItaux    vol(   0 ): 3.513E+14  Parms: UU      U1      
 Compute Stats, Diag. #    226  SItauy    vol(   0 ): 3.508E+14  Parms: VV      U1      
 cg2d: Sum(rhs),rhsMax =   2.48867877802102E+01  2.88814359676245E-01
 Compute Stats, Diag. #    214  SIarea    vol(   0 ): 3.580E+14  Parms: SM      M1      
 Compute Stats, Diag. #    217  SIheff    vol(   0 ): 3.580E+14  Parms: SM      M1      
 Compute Stats, Diag. #    219  SIhsnow   vol(   0 ): 3.580E+14  Parms: SM      M1      
 Compute Stats, Diag. #     83  sIceLoad  vol(   0 ): 3.580E+14  Parms: SM      U1      
 Compute Stats, Diag. #    223  SIuice    vol(   0 ): 3.513E+14  Parms: UU      M1      
 Compute Stats, Diag. #    224  SIvice    vol(   0 ): 3.508E+14  Parms: VV      M1      
 Compute Stats, Diag. #    225  SItaux    vol(   0 ): 3.513E+14  Parms: UU      U1      
 Compute Stats, Diag. #    226  SItauy    vol(   0 ): 3.508E+14  Parms: VV      U1      
 cg2d: Sum(rhs),rhsMax =   2.48944378866065E+01  2.88924193102469E-01
(PID.TID 0000.0001)      cg2d_init_res =   6.16980617086251E-02
(PID.TID 0000.0001)      cg2d_iters(min,last) =      -1      26
(PID.TID 0000.0001)      cg2d_last_res =   2.79474832989159E-05
(PID.TID 0000.0001) // =======================================================
(PID.TID 0000.0001) // Begin MONITOR dynamic field statistics
(PID.TID 0000.0001) // =======================================================
(PID.TID 0000.0001) %MON time_tsnumber                =                   416
(PID.TID 0000.0001) %MON time_secondsf                =   3.7440000000000E+05
(PID.TID 0000.0001) %MON dynstat_eta_max              =   1.0391525597623E+00
(PID.TID 0000.0001) %MON dynstat_eta_min              =  -1.8744257907053E+00
(PID.TID 0000.0001) %MON dynstat_eta_mean             =  -7.8749057791263E-04
(PID.TID 0000.0001) %MON dynstat_eta_sd               =   6.3711939604974E-01
(PID.TID 0000.0001) %MON dynstat_eta_del2             =   5.7592140764065E-05
(PID.TID 0000.0001) %MON dynstat_uvel_max             =   8.8057464713597E-01
(PID.TID 0000.0001) %MON dynstat_uvel_min             =  -5.9169192482570E-01
(PID.TID 0000.0001) %MON dynstat_uvel_mean            =   1.2187366544233E-03
(PID.TID 0000.0001) %MON dynstat_uvel_sd              =   1.8876560788580E-02
(PID.TID 0000.0001) %MON dynstat_uvel_del2            =   7.7356375854237E-06
(PID.TID 0000.0001) %MON dynstat_vvel_max             =   9.1139681867341E-01
(PID.TID 0000.0001) %MON dynstat_vvel_min             =  -8.4619155371792E-01
(PID.TID 0000.0001) %MON dynstat_vvel_mean            =   1.1900973339306E-03
(PID.TID 0000.0001) %MON dynstat_vvel_sd              =   2.0419941498862E-02
(PID.TID 0000.0001) %MON dynstat_vvel_del2            =   7.9061919395214E-06
(PID.TID 0000.0001) %MON dynstat_wvel_max             =   3.5151414725631E-04
(PID.TID 0000.0001) %MON dynstat_wvel_min             =  -8.6665474899323E-04
(PID.TID 0000.0001) %MON dynstat_wvel_mean            =   8.3023200041260E-09
(PID.TID 0000.0001) %MON dynstat_wvel_sd              =   1.8756447600939E-05
(PID.TID 0000.0001) %MON dynstat_wvel_del2            =   1.4979590384056E-08
(PID.TID 0000.0001) %MON dynstat_theta_max            =   3.2299560664622E+01
(PID.TID 0000.0001) %MON dynstat_theta_min            =  -2.0843264795149E+00
(PID.TID 0000.0001) %MON dynstat_theta_mean           =   3.5904083657942E+00
(PID.TID 0000.0001) %MON dynstat_theta_sd             =   4.4363943279486E+00
(PID.TID 0000.0001) %MON dynstat_theta_del2           =   9.5820133887622E-05
(PID.TID 0000.0001) %MON dynstat_salt_max             =   4.0711559088722E+01
(PID.TID 0000.0001) %MON dynstat_salt_min             =   1.0965024048056E+01
(PID.TID 0000.0001) %MON dynstat_salt_mean            =   3.4725578039487E+01
(PID.TID 0000.0001) %MON dynstat_salt_sd              =   3.7701058974444E-01
(PID.TID 0000.0001) %MON dynstat_salt_del2            =   3.3400176385635E-05
(PID.TID 0000.0001) %MON dynstat_sst_max              =   3.2299560664622E+01
(PID.TID 0000.0001) %MON dynstat_sst_min              =  -1.8090301758112E+00
(PID.TID 0000.0001) %MON dynstat_sst_mean             =   1.8487528075420E+01
(PID.TID 0000.0001) %MON dynstat_sst_sd               =   1.0191449538174E+01
(PID.TID 0000.0001) %MON dynstat_sst_del2             =   8.1929243636058E-04
(PID.TID 0000.0001) %MON dynstat_sss_max              =   3.9116983357145E+01
(PID.TID 0000.0001) %MON dynstat_sss_min              =   1.0965024048056E+01
(PID.TID 0000.0001) %MON dynstat_sss_mean             =   3.4699798911796E+01
(PID.TID 0000.0001) %MON dynstat_sss_sd               =   1.1550364291612E+00
(PID.TID 0000.0001) %MON dynstat_sss_del2             =   9.7979306472103E-04
(PID.TID 0000.0001) %MON forcing_qnet_max             =   7.0877337646484E+02
(PID.TID 0000.0001) %MON forcing_qnet_min             =  -9.3020446066263E+02
(PID.TID 0000.0001) %MON forcing_qnet_mean            =   1.2798675053526E+01
(PID.TID 0000.0001) %MON forcing_qnet_sd              =   1.8298426509202E+02
(PID.TID 0000.0001) %MON forcing_qnet_del2            =   3.1474072532283E-01
(PID.TID 0000.0001) %MON forcing_qsw_max              =   0.0000000000000E+00
(PID.TID 0000.0001) %MON forcing_qsw_min              =  -1.0742462269387E+02
(PID.TID 0000.0001) %MON forcing_qsw_mean             =  -1.7111403385524E+01
(PID.TID 0000.0001) %MON forcing_qsw_sd               =   2.6895409532410E+01
(PID.TID 0000.0001) %MON forcing_qsw_del2             =   2.1213444355726E-02
(PID.TID 0000.0001) %MON forcing_empmr_max            =   1.0630091419443E-03
(PID.TID 0000.0001) %MON forcing_empmr_min            =  -4.7005776315928E-02
(PID.TID 0000.0001) %MON forcing_empmr_mean           =   2.7668357757107E-07
(PID.TID 0000.0001) %MON forcing_empmr_sd             =   2.4042597846500E-04
(PID.TID 0000.0001) %MON forcing_empmr_del2           =   3.3829384116970E-06
(PID.TID 0000.0001) %MON forcing_fu_max               =   8.6966082453728E-01
(PID.TID 0000.0001) %MON forcing_fu_min               =  -5.2202791809635E-01
(PID.TID 0000.0001) %MON forcing_fu_mean              =   8.5638372622568E-03
(PID.TID 0000.0001) %MON forcing_fu_sd                =   9.5716394748355E-02
(PID.TID 0000.0001) %MON forcing_fu_del2              =   1.2332658522842E-04
(PID.TID 0000.0001) %MON forcing_fv_max               =   7.2097647190094E-01
(PID.TID 0000.0001) %MON forcing_fv_min               =  -6.6424329916203E-01
(PID.TID 0000.0001) %MON forcing_fv_mean              =  -3.4532947216325E-03
(PID.TID 0000.0001) %MON forcing_fv_sd                =   9.3892866033203E-02
(PID.TID 0000.0001) %MON forcing_fv_del2              =   1.1030007330961E-04
(PID.TID 0000.0001) %MON trAdv_CFL_u_max              =   1.4665295576509E-02
(PID.TID 0000.0001) %MON trAdv_CFL_v_max              =   1.5873024900241E-02
(PID.TID 0000.0001) %MON trAdv_CFL_w_max              =   2.1010139666229E-02
(PID.TID 0000.0001) %MON advcfl_uvel_max              =   1.3780544457569E-02
(PID.TID 0000.0001) %MON advcfl_vvel_max              =   1.6178117588900E-02
(PID.TID 0000.0001) %MON advcfl_wvel_max              =   1.9619839112375E-02
(PID.TID 0000.0001) %MON advcfl_W_hf_max              =   2.0533079000617E-02
(PID.TID 0000.0001) %MON pe_b_mean                    =   5.3395011777394E-04
(PID.TID 0000.0001) %MON ke_max                       =   3.9703657372861E-01
(PID.TID 0000.0001) %MON ke_mean                      =   3.7428125437925E-04
(PID.TID 0000.0001) %MON ke_vol                       =   1.3349975950934E+18
(PID.TID 0000.0001) %MON vort_r_min                   =  -2.0720126947712E-05
(PID.TID 0000.0001) %MON vort_r_max                   =   2.5422213310157E-05
(PID.TID 0000.0001) %MON vort_a_mean                  =  -1.9727864647440E-05
(PID.TID 0000.0001) %MON vort_a_sd                    =   7.4542955073527E-05
(PID.TID 0000.0001) %MON vort_p_mean                  =  -2.1760536849559E-05
(PID.TID 0000.0001) %MON vort_p_sd                    =   9.7246829086358E-05
(PID.TID 0000.0001) %MON surfExpan_theta_mean         =  -9.5600609368428E-08
(PID.TID 0000.0001) %MON surfExpan_salt_mean          =   1.5983497762357E-08
(PID.TID 0000.0001) // =======================================================
(PID.TID 0000.0001) // End MONITOR dynamic field statistics
(PID.TID 0000.0001) // =======================================================
(PID.TID 0000.0001) // =======================================================
(PID.TID 0000.0001) // Begin MONITOR SEAICE statistics
(PID.TID 0000.0001) // =======================================================
(PID.TID 0000.0001) %MON seaice_tsnumber              =                   416
(PID.TID 0000.0001) %MON seaice_time_sec              =   3.7440000000000E+05
(PID.TID 0000.0001) %MON seaice_uice_max              =   4.0000000000000E-01
(PID.TID 0000.0001) %MON seaice_uice_min              =  -4.0000000000000E-01
(PID.TID 0000.0001) %MON seaice_uice_mean             =  -8.3054598624025E-03
(PID.TID 0000.0001) %MON seaice_uice_sd               =   1.9802383574176E-01
(PID.TID 0000.0001) %MON seaice_uice_del2             =   2.2931571122150E-04
(PID.TID 0000.0001) %MON seaice_vice_max              =   4.0000000000000E-01
(PID.TID 0000.0001) %MON seaice_vice_min              =  -4.0000000000000E-01
(PID.TID 0000.0001) %MON seaice_vice_mean             =  -2.1960776359499E-02
(PID.TID 0000.0001) %MON seaice_vice_sd               =   2.1302038025672E-01
(PID.TID 0000.0001) %MON seaice_vice_del2             =   2.3932563818061E-04
(PID.TID 0000.0001) %MON seaice_area_max              =   1.0000000000000E+00
(PID.TID 0000.0001) %MON seaice_area_min              =   0.0000000000000E+00
(PID.TID 0000.0001) %MON seaice_area_mean             =   6.7415325364174E-02
(PID.TID 0000.0001) %MON seaice_area_sd               =   2.3260984626906E-01
(PID.TID 0000.0001) %MON seaice_area_del2             =   4.1763495805226E-04
(PID.TID 0000.0001) %MON seaice_heff_max              =   2.5106455173809E+01
(PID.TID 0000.0001) %MON seaice_heff_min              =   0.0000000000000E+00
(PID.TID 0000.0001) %MON seaice_heff_mean             =   2.1427689857242E-01
(PID.TID 0000.0001) %MON seaice_heff_sd               =   1.0682670127771E+00
(PID.TID 0000.0001) %MON seaice_heff_del2             =   3.8742943471455E-03
(PID.TID 0000.0001) %MON seaice_hsnow_max             =   8.2923933252750E+00
(PID.TID 0000.0001) %MON seaice_hsnow_min             =   0.0000000000000E+00
(PID.TID 0000.0001) %MON seaice_hsnow_mean            =   2.4277727437356E-02
(PID.TID 0000.0001) %MON seaice_hsnow_sd              =   1.5679293344088E-01
(PID.TID 0000.0001) %MON seaice_hsnow_del2            =   1.2455119497735E-03
(PID.TID 0000.0001) // =======================================================
(PID.TID 0000.0001) // End MONITOR SEAICE statistics
(PID.TID 0000.0001) // =======================================================
 Computing Diagnostic #     86  oceQnet      Counter:       4   Parms: SM      U1      
 Computing Diagnostic #     87  oceQsw       Counter:       4   Parms: SM      U1      
 Computing Diagnostic #     84  oceFWflx     Counter:       4   Parms: SM      U1      
 Computing Diagnostic #     85  oceSflux     Counter:       4   Parms: SM      U1      
 Computing Diagnostic #     80  oceTAUX      Counter:       4   Parms: UU      U1      
           Vector  Mate for  oceTAUX      Diagnostic #     81  oceTAUY  exists 
 Computing Diagnostic #     81  oceTAUY      Counter:       4   Parms: VV      U1      
           Vector  Mate for  oceTAUY      Diagnostic #     80  oceTAUX  exists 
 Computing Diagnostic #     26  THETA        Counter:       4   Parms: SMR     MR      
 Computing Diagnostic #     27  SALT         Counter:       4   Parms: SMR     MR      
 Computing Diagnostic #     30  UVEL         Counter:       4   Parms: UUR     MR      
           Vector  Mate for  UVEL         Diagnostic #     31  VVEL     exists 
 Computing Diagnostic #     31  VVEL         Counter:       4   Parms: VVR     MR      
           Vector  Mate for  VVEL         Diagnostic #     30  UVEL     exists 
 Computing Diagnostic #    214  SIarea       Counter:       4   Parms: SM      M1      
 Computing Diagnostic #    217  SIheff       Counter:       4   Parms: SM      M1      
 Computing Diagnostic #    219  SIhsnow      Counter:       4   Parms: SM      M1      
 Computing Diagnostic #     83  sIceLoad     Counter:       4   Parms: SM      U1      
 Computing Diagnostic #    223  SIuice       Counter:       4   Parms: UU      M1      
           Vector  Mate for  SIuice       Diagnostic #    224  SIvice   exists 
 Computing Diagnostic #    224  SIvice       Counter:       4   Parms: VV      M1      
           Vector  Mate for  SIvice       Diagnostic #    223  SIuice   exists 
 Computing Diagnostic #    225  SItaux       Counter:       4   Parms: UU      U1      
           Vector  Mate for  SItaux       Diagnostic #    226  SItauy   exists 
 Computing Diagnostic #    226  SItauy       Counter:       4   Parms: VV      U1      
           Vector  Mate for  SItauy       Diagnostic #    225  SItaux   exists 
 Computing Diagnostic #    285  SIareaN      Counter:       4   Parms: SM      MX      
 Computing Diagnostic #    284  SIheffN      Counter:       4   Parms: SM      MX      
 Computing Diagnostic #    286  SIhsnowN     Counter:       4   Parms: SM      MX      
 Compute Stats, Diag. #    214  SIarea    vol(   0 ): 3.580E+14  Parms: SM      M1      
 Compute Stats, Diag. #    217  SIheff    vol(   0 ): 3.580E+14  Parms: SM      M1      
 Compute Stats, Diag. #    219  SIhsnow   vol(   0 ): 3.580E+14  Parms: SM      M1      
 Compute Stats, Diag. #     83  sIceLoad  vol(   0 ): 3.580E+14  Parms: SM      U1      
 Compute Stats, Diag. #    223  SIuice    vol(   0 ): 3.513E+14  Parms: UU      M1      
 Compute Stats, Diag. #    224  SIvice    vol(   0 ): 3.508E+14  Parms: VV      M1      
 Compute Stats, Diag. #    225  SItaux    vol(   0 ): 3.513E+14  Parms: UU      U1      
 Compute Stats, Diag. #    226  SItauy    vol(   0 ): 3.508E+14  Parms: VV      U1      
 cg2d: Sum(rhs),rhsMax =   2.48999431885746E+01  2.89037273292801E-01
 Compute Stats, Diag. #    214  SIarea    vol(   0 ): 3.580E+14  Parms: SM      M1      
 Compute Stats, Diag. #    217  SIheff    vol(   0 ): 3.580E+14  Parms: SM      M1      
 Compute Stats, Diag. #    219  SIhsnow   vol(   0 ): 3.580E+14  Parms: SM      M1      
 Compute Stats, Diag. #     83  sIceLoad  vol(   0 ): 3.580E+14  Parms: SM      U1      
 Compute Stats, Diag. #    223  SIuice    vol(   0 ): 3.513E+14  Parms: UU      M1      
 Compute Stats, Diag. #    224  SIvice    vol(   0 ): 3.508E+14  Parms: VV      M1      
 Compute Stats, Diag. #    225  SItaux    vol(   0 ): 3.513E+14  Parms: UU      U1      
 Compute Stats, Diag. #    226  SItauy    vol(   0 ): 3.508E+14  Parms: VV      U1      
 cg2d: Sum(rhs),rhsMax =   2.49044290395239E+01  2.89153672905384E-01
 Compute Stats, Diag. #    214  SIarea    vol(   0 ): 3.580E+14  Parms: SM      M1      
 Compute Stats, Diag. #    217  SIheff    vol(   0 ): 3.580E+14  Parms: SM      M1      
 Compute Stats, Diag. #    219  SIhsnow   vol(   0 ): 3.580E+14  Parms: SM      M1      
 Compute Stats, Diag. #     83  sIceLoad  vol(   0 ): 3.580E+14  Parms: SM      U1      
 Compute Stats, Diag. #    223  SIuice    vol(   0 ): 3.513E+14  Parms: UU      M1      
 Compute Stats, Diag. #    224  SIvice    vol(   0 ): 3.508E+14  Parms: VV      M1      
 Compute Stats, Diag. #    225  SItaux    vol(   0 ): 3.513E+14  Parms: UU      U1      
 Compute Stats, Diag. #    226  SItauy    vol(   0 ): 3.508E+14  Parms: VV      U1      
 cg2d: Sum(rhs),rhsMax =   2.49012870897934E+01  2.89273004413743E-01
 Compute Stats, Diag. #    214  SIarea    vol(   0 ): 3.580E+14  Parms: SM      M1      
 Compute Stats, Diag. #    217  SIheff    vol(   0 ): 3.580E+14  Parms: SM      M1      
 Compute Stats, Diag. #    219  SIhsnow   vol(   0 ): 3.580E+14  Parms: SM      M1      
 Compute Stats, Diag. #     83  sIceLoad  vol(   0 ): 3.580E+14  Parms: SM      U1      
 Compute Stats, Diag. #    223  SIuice    vol(   0 ): 3.513E+14  Parms: UU      M1      
 Compute Stats, Diag. #    224  SIvice    vol(   0 ): 3.508E+14  Parms: VV      M1      
 Compute Stats, Diag. #    225  SItaux    vol(   0 ): 3.513E+14  Parms: UU      U1      
 Compute Stats, Diag. #    226  SItauy    vol(   0 ): 3.508E+14  Parms: VV      U1      
 cg2d: Sum(rhs),rhsMax =   2.48938374863074E+01  2.89394265931939E-01
 Computing Diagnostic #     86  oceQnet      Counter:       4   Parms: SM      U1      
 Computing Diagnostic #     87  oceQsw       Counter:       4   Parms: SM      U1      
 Computing Diagnostic #     84  oceFWflx     Counter:       4   Parms: SM      U1      
 Computing Diagnostic #     85  oceSflux     Counter:       4   Parms: SM      U1      
 Computing Diagnostic #     80  oceTAUX      Counter:       4   Parms: UU      U1      
           Vector  Mate for  oceTAUX      Diagnostic #     81  oceTAUY  exists 
 Computing Diagnostic #     81  oceTAUY      Counter:       4   Parms: VV      U1      
           Vector  Mate for  oceTAUY      Diagnostic #     80  oceTAUX  exists 
 Computing Diagnostic #     26  THETA        Counter:       4   Parms: SMR     MR      
 Computing Diagnostic #     27  SALT         Counter:       4   Parms: SMR     MR      
 Computing Diagnostic #     30  UVEL         Counter:       4   Parms: UUR     MR      
           Vector  Mate for  UVEL         Diagnostic #     31  VVEL     exists 
 Computing Diagnostic #     31  VVEL         Counter:       4   Parms: VVR     MR      
           Vector  Mate for  VVEL         Diagnostic #     30  UVEL     exists 
 Computing Diagnostic #    214  SIarea       Counter:       4   Parms: SM      M1      
 Computing Diagnostic #    217  SIheff       Counter:       4   Parms: SM      M1      
 Computing Diagnostic #    219  SIhsnow      Counter:       4   Parms: SM      M1      
 Computing Diagnostic #     83  sIceLoad     Counter:       4   Parms: SM      U1      
 Computing Diagnostic #    223  SIuice       Counter:       4   Parms: UU      M1      
           Vector  Mate for  SIuice       Diagnostic #    224  SIvice   exists 
 Computing Diagnostic #    224  SIvice       Counter:       4   Parms: VV      M1      
           Vector  Mate for  SIvice       Diagnostic #    223  SIuice   exists 
 Computing Diagnostic #    225  SItaux       Counter:       4   Parms: UU      U1      
           Vector  Mate for  SItaux       Diagnostic #    226  SItauy   exists 
 Computing Diagnostic #    226  SItauy       Counter:       4   Parms: VV      U1      
           Vector  Mate for  SItauy       Diagnostic #    225  SItaux   exists 
 Computing Diagnostic #    285  SIareaN      Counter:       4   Parms: SM      MX      
 Computing Diagnostic #    284  SIheffN      Counter:       4   Parms: SM      MX      
 Computing Diagnostic #    286  SIhsnowN     Counter:       4   Parms: SM      MX      
 Compute Stats, Diag. #    214  SIarea    vol(   0 ): 3.580E+14  Parms: SM      M1      
 Compute Stats, Diag. #    217  SIheff    vol(   0 ): 3.580E+14  Parms: SM      M1      
 Compute Stats, Diag. #    219  SIhsnow   vol(   0 ): 3.580E+14  Parms: SM      M1      
 Compute Stats, Diag. #     83  sIceLoad  vol(   0 ): 3.580E+14  Parms: SM      U1      
 Compute Stats, Diag. #    223  SIuice    vol(   0 ): 3.513E+14  Parms: UU      M1      
 Compute Stats, Diag. #    224  SIvice    vol(   0 ): 3.508E+14  Parms: VV      M1      
 Compute Stats, Diag. #    225  SItaux    vol(   0 ): 3.513E+14  Parms: UU      U1      
 Compute Stats, Diag. #    226  SItauy    vol(   0 ): 3.508E+14  Parms: VV      U1      
 cg2d: Sum(rhs),rhsMax =   2.48835816954325E+01  2.89517631029174E-01
 Compute Stats, Diag. #    214  SIarea    vol(   0 ): 3.580E+14  Parms: SM      M1      
 Compute Stats, Diag. #    217  SIheff    vol(   0 ): 3.580E+14  Parms: SM      M1      
 Compute Stats, Diag. #    219  SIhsnow   vol(   0 ): 3.580E+14  Parms: SM      M1      
 Compute Stats, Diag. #     83  sIceLoad  vol(   0 ): 3.580E+14  Parms: SM      U1      
 Compute Stats, Diag. #    223  SIuice    vol(   0 ): 3.513E+14  Parms: UU      M1      
 Compute Stats, Diag. #    224  SIvice    vol(   0 ): 3.508E+14  Parms: VV      M1      
 Compute Stats, Diag. #    225  SItaux    vol(   0 ): 3.513E+14  Parms: UU      U1      
 Compute Stats, Diag. #    226  SItauy    vol(   0 ): 3.508E+14  Parms: VV      U1      
 cg2d: Sum(rhs),rhsMax =   2.48744386763514E+01  2.89643020184467E-01
 Compute Stats, Diag. #    214  SIarea    vol(   0 ): 3.580E+14  Parms: SM      M1      
 Compute Stats, Diag. #    217  SIheff    vol(   0 ): 3.580E+14  Parms: SM      M1      
 Compute Stats, Diag. #    219  SIhsnow   vol(   0 ): 3.580E+14  Parms: SM      M1      
 Compute Stats, Diag. #     83  sIceLoad  vol(   0 ): 3.580E+14  Parms: SM      U1      
 Compute Stats, Diag. #    223  SIuice    vol(   0 ): 3.513E+14  Parms: UU      M1      
 Compute Stats, Diag. #    224  SIvice    vol(   0 ): 3.508E+14  Parms: VV      M1      
 Compute Stats, Diag. #    225  SItaux    vol(   0 ): 3.513E+14  Parms: UU      U1      
 Compute Stats, Diag. #    226  SItauy    vol(   0 ): 3.508E+14  Parms: VV      U1      
 cg2d: Sum(rhs),rhsMax =   2.48662903687599E+01  2.89769650045059E-01
 Compute Stats, Diag. #    214  SIarea    vol(   0 ): 3.580E+14  Parms: SM      M1      
 Compute Stats, Diag. #    217  SIheff    vol(   0 ): 3.580E+14  Parms: SM      M1      
 Compute Stats, Diag. #    219  SIhsnow   vol(   0 ): 3.580E+14  Parms: SM      M1      
 Compute Stats, Diag. #     83  sIceLoad  vol(   0 ): 3.580E+14  Parms: SM      U1      
 Compute Stats, Diag. #    223  SIuice    vol(   0 ): 3.513E+14  Parms: UU      M1      
 Compute Stats, Diag. #    224  SIvice    vol(   0 ): 3.508E+14  Parms: VV      M1      
 Compute Stats, Diag. #    225  SItaux    vol(   0 ): 3.513E+14  Parms: UU      U1      
 Compute Stats, Diag. #    226  SItauy    vol(   0 ): 3.508E+14  Parms: VV      U1      
 cg2d: Sum(rhs),rhsMax =   2.48564881117282E+01  2.89896248203901E-01
(PID.TID 0000.0001)      cg2d_init_res =   5.93795784801879E-02
(PID.TID 0000.0001)      cg2d_iters(min,last) =      -1      26
(PID.TID 0000.0001)      cg2d_last_res =   2.71127295371310E-05
(PID.TID 0000.0001) // =======================================================
(PID.TID 0000.0001) // Begin MONITOR dynamic field statistics
(PID.TID 0000.0001) // =======================================================
(PID.TID 0000.0001) %MON time_tsnumber                =                   424
(PID.TID 0000.0001) %MON time_secondsf                =   3.8160000000000E+05
(PID.TID 0000.0001) %MON dynstat_eta_max              =   1.0368511511933E+00
(PID.TID 0000.0001) %MON dynstat_eta_min              =  -1.8728297265170E+00
(PID.TID 0000.0001) %MON dynstat_eta_mean             =  -7.8629010532969E-04
(PID.TID 0000.0001) %MON dynstat_eta_sd               =   6.3666873887359E-01
(PID.TID 0000.0001) %MON dynstat_eta_del2             =   5.7486796340440E-05
(PID.TID 0000.0001) %MON dynstat_uvel_max             =   8.7155340626393E-01
(PID.TID 0000.0001) %MON dynstat_uvel_min             =  -5.9884904778498E-01
(PID.TID 0000.0001) %MON dynstat_uvel_mean            =   1.2576212399501E-03
(PID.TID 0000.0001) %MON dynstat_uvel_sd              =   1.8824363245182E-02
(PID.TID 0000.0001) %MON dynstat_uvel_del2            =   7.7258057936487E-06
(PID.TID 0000.0001) %MON dynstat_vvel_max             =   8.9024595063982E-01
(PID.TID 0000.0001) %MON dynstat_vvel_min             =  -8.4746913044730E-01
(PID.TID 0000.0001) %MON dynstat_vvel_mean            =   1.1778866113418E-03
(PID.TID 0000.0001) %MON dynstat_vvel_sd              =   2.0354237429483E-02
(PID.TID 0000.0001) %MON dynstat_vvel_del2            =   7.8763724873235E-06
(PID.TID 0000.0001) %MON dynstat_wvel_max             =   3.4159508589516E-04
(PID.TID 0000.0001) %MON dynstat_wvel_min             =  -8.7380641893027E-04
(PID.TID 0000.0001) %MON dynstat_wvel_mean            =   6.3030889577095E-09
(PID.TID 0000.0001) %MON dynstat_wvel_sd              =   1.8633423091686E-05
(PID.TID 0000.0001) %MON dynstat_wvel_del2            =   1.4918061844567E-08
(PID.TID 0000.0001) %MON dynstat_theta_max            =   3.2321686214157E+01
(PID.TID 0000.0001) %MON dynstat_theta_min            =  -2.0852241696558E+00
(PID.TID 0000.0001) %MON dynstat_theta_mean           =   3.5903967933278E+00
(PID.TID 0000.0001) %MON dynstat_theta_sd             =   4.4363762146569E+00
(PID.TID 0000.0001) %MON dynstat_theta_del2           =   9.5724134479054E-05
(PID.TID 0000.0001) %MON dynstat_salt_max             =   4.0711558905833E+01
(PID.TID 0000.0001) %MON dynstat_salt_min             =   1.0948460830254E+01
(PID.TID 0000.0001) %MON dynstat_salt_mean            =   3.4725578011455E+01
(PID.TID 0000.0001) %MON dynstat_salt_sd              =   3.7701139856986E-01
(PID.TID 0000.0001) %MON dynstat_salt_del2            =   3.3843386047556E-05
(PID.TID 0000.0001) %MON dynstat_sst_max              =   3.2321686214157E+01
(PID.TID 0000.0001) %MON dynstat_sst_min              =  -1.8079560996233E+00
(PID.TID 0000.0001) %MON dynstat_sst_mean             =   1.8484468555499E+01
(PID.TID 0000.0001) %MON dynstat_sst_sd               =   1.0193078944968E+01
(PID.TID 0000.0001) %MON dynstat_sst_del2             =   8.1977960501442E-04
(PID.TID 0000.0001) %MON dynstat_sss_max              =   3.9116307415677E+01
(PID.TID 0000.0001) %MON dynstat_sss_min              =   1.0948460830254E+01
(PID.TID 0000.0001) %MON dynstat_sss_mean             =   3.4699875648475E+01
(PID.TID 0000.0001) %MON dynstat_sss_sd               =   1.1555278799915E+00
(PID.TID 0000.0001) %MON dynstat_sss_del2             =   1.0021997964984E-03
(PID.TID 0000.0001) %MON forcing_qnet_max             =   7.4017791748047E+02
(PID.TID 0000.0001) %MON forcing_qnet_min             =  -8.9409726129839E+02
(PID.TID 0000.0001) %MON forcing_qnet_mean            =   3.2046872009866E+01
(PID.TID 0000.0001) %MON forcing_qnet_sd              =   1.7699889298625E+02
(PID.TID 0000.0001) %MON forcing_qnet_del2            =   3.2033296409968E-01
(PID.TID 0000.0001) %MON forcing_qsw_max              =   0.0000000000000E+00
(PID.TID 0000.0001) %MON forcing_qsw_min              =  -1.0924517207523E+02
(PID.TID 0000.0001) %MON forcing_qsw_mean             =  -1.4726791714935E+01
(PID.TID 0000.0001) %MON forcing_qsw_sd               =   2.6700061671088E+01
(PID.TID 0000.0001) %MON forcing_qsw_del2             =   1.8894909972610E-02
(PID.TID 0000.0001) %MON forcing_empmr_max            =   1.3996040215716E-03
(PID.TID 0000.0001) %MON forcing_empmr_min            =  -1.0231979936361E-01
(PID.TID 0000.0001) %MON forcing_empmr_mean           =  -3.5452102268541E-07
(PID.TID 0000.0001) %MON forcing_empmr_sd             =   3.8219406669889E-04
(PID.TID 0000.0001) %MON forcing_empmr_del2           =   6.4211017827043E-06
(PID.TID 0000.0001) %MON forcing_fu_max               =   9.0137812495232E-01
(PID.TID 0000.0001) %MON forcing_fu_min               =  -5.5830905554595E-01
(PID.TID 0000.0001) %MON forcing_fu_mean              =   9.2065071227390E-03
(PID.TID 0000.0001) %MON forcing_fu_sd                =   9.7119761351337E-02
(PID.TID 0000.0001) %MON forcing_fu_del2              =   1.2569873306017E-04
(PID.TID 0000.0001) %MON forcing_fv_max               =   7.7242836356163E-01
(PID.TID 0000.0001) %MON forcing_fv_min               =  -6.3274313203853E-01
(PID.TID 0000.0001) %MON forcing_fv_mean              =  -4.6508417854072E-03
(PID.TID 0000.0001) %MON forcing_fv_sd                =   9.4314537183693E-02
(PID.TID 0000.0001) %MON forcing_fv_del2              =   1.1029983968233E-04
(PID.TID 0000.0001) %MON trAdv_CFL_u_max              =   1.5459243341022E-02
(PID.TID 0000.0001) %MON trAdv_CFL_v_max              =   1.5564146970559E-02
(PID.TID 0000.0001) %MON trAdv_CFL_w_max              =   2.2421109317009E-02
(PID.TID 0000.0001) %MON advcfl_uvel_max              =   1.4573854339415E-02
(PID.TID 0000.0001) %MON advcfl_vvel_max              =   1.5802670557329E-02
(PID.TID 0000.0001) %MON advcfl_wvel_max              =   1.9638985653210E-02
(PID.TID 0000.0001) %MON advcfl_W_hf_max              =   2.0558103653025E-02
(PID.TID 0000.0001) %MON pe_b_mean                    =   5.3319501973433E-04
(PID.TID 0000.0001) %MON ke_max                       =   3.8354704560366E-01
(PID.TID 0000.0001) %MON ke_mean                      =   3.7207296079421E-04
(PID.TID 0000.0001) %MON ke_vol                       =   1.3349975953255E+18
(PID.TID 0000.0001) %MON vort_r_min                   =  -2.1673509647020E-05
(PID.TID 0000.0001) %MON vort_r_max                   =   2.4931619237772E-05
(PID.TID 0000.0001) %MON vort_a_mean                  =  -1.9727864647440E-05
(PID.TID 0000.0001) %MON vort_a_sd                    =   7.4542959511390E-05
(PID.TID 0000.0001) %MON vort_p_mean                  =  -2.1760536823540E-05
(PID.TID 0000.0001) %MON vort_p_sd                    =   9.7246830410300E-05
(PID.TID 0000.0001) %MON surfExpan_theta_mean         =  -1.6093669308645E-07
(PID.TID 0000.0001) %MON surfExpan_salt_mean          =   2.0694255784037E-08
(PID.TID 0000.0001) // =======================================================
(PID.TID 0000.0001) // End MONITOR dynamic field statistics
(PID.TID 0000.0001) // =======================================================
(PID.TID 0000.0001) // =======================================================
(PID.TID 0000.0001) // Begin MONITOR SEAICE statistics
(PID.TID 0000.0001) // =======================================================
(PID.TID 0000.0001) %MON seaice_tsnumber              =                   424
(PID.TID 0000.0001) %MON seaice_time_sec              =   3.8160000000000E+05
(PID.TID 0000.0001) %MON seaice_uice_max              =   4.0000000000000E-01
(PID.TID 0000.0001) %MON seaice_uice_min              =  -4.0000000000000E-01
(PID.TID 0000.0001) %MON seaice_uice_mean             =  -8.3054598624025E-03
(PID.TID 0000.0001) %MON seaice_uice_sd               =   1.9802383574176E-01
(PID.TID 0000.0001) %MON seaice_uice_del2             =   2.2931571122150E-04
(PID.TID 0000.0001) %MON seaice_vice_max              =   4.0000000000000E-01
(PID.TID 0000.0001) %MON seaice_vice_min              =  -4.0000000000000E-01
(PID.TID 0000.0001) %MON seaice_vice_mean             =  -2.1960776359499E-02
(PID.TID 0000.0001) %MON seaice_vice_sd               =   2.1302038025672E-01
(PID.TID 0000.0001) %MON seaice_vice_del2             =   2.3932563818061E-04
(PID.TID 0000.0001) %MON seaice_area_max              =   1.0000000000000E+00
(PID.TID 0000.0001) %MON seaice_area_min              =   0.0000000000000E+00
(PID.TID 0000.0001) %MON seaice_area_mean             =   6.7364917351090E-02
(PID.TID 0000.0001) %MON seaice_area_sd               =   2.3251543691415E-01
(PID.TID 0000.0001) %MON seaice_area_del2             =   4.1678810311671E-04
(PID.TID 0000.0001) %MON seaice_heff_max              =   2.5103327203076E+01
(PID.TID 0000.0001) %MON seaice_heff_min              =   0.0000000000000E+00
(PID.TID 0000.0001) %MON seaice_heff_mean             =   2.1422774306524E-01
(PID.TID 0000.0001) %MON seaice_heff_sd               =   1.0682123809603E+00
(PID.TID 0000.0001) %MON seaice_heff_del2             =   3.8734506804539E-03
(PID.TID 0000.0001) %MON seaice_hsnow_max             =   8.2913658007456E+00
(PID.TID 0000.0001) %MON seaice_hsnow_min             =   0.0000000000000E+00
(PID.TID 0000.0001) %MON seaice_hsnow_mean            =   2.4275072820602E-02
(PID.TID 0000.0001) %MON seaice_hsnow_sd              =   1.5677672760207E-01
(PID.TID 0000.0001) %MON seaice_hsnow_del2            =   1.2453366213473E-03
(PID.TID 0000.0001) // =======================================================
(PID.TID 0000.0001) // End MONITOR SEAICE statistics
(PID.TID 0000.0001) // =======================================================
 Computing Diagnostic #     86  oceQnet      Counter:       4   Parms: SM      U1      
 Computing Diagnostic #     87  oceQsw       Counter:       4   Parms: SM      U1      
 Computing Diagnostic #     84  oceFWflx     Counter:       4   Parms: SM      U1      
 Computing Diagnostic #     85  oceSflux     Counter:       4   Parms: SM      U1      
 Computing Diagnostic #     80  oceTAUX      Counter:       4   Parms: UU      U1      
           Vector  Mate for  oceTAUX      Diagnostic #     81  oceTAUY  exists 
 Computing Diagnostic #     81  oceTAUY      Counter:       4   Parms: VV      U1      
           Vector  Mate for  oceTAUY      Diagnostic #     80  oceTAUX  exists 
 Computing Diagnostic #     26  THETA        Counter:       4   Parms: SMR     MR      
 Computing Diagnostic #     27  SALT         Counter:       4   Parms: SMR     MR      
 Computing Diagnostic #     30  UVEL         Counter:       4   Parms: UUR     MR      
           Vector  Mate for  UVEL         Diagnostic #     31  VVEL     exists 
 Computing Diagnostic #     31  VVEL         Counter:       4   Parms: VVR     MR      
           Vector  Mate for  VVEL         Diagnostic #     30  UVEL     exists 
 Computing Diagnostic #    214  SIarea       Counter:       4   Parms: SM      M1      
 Computing Diagnostic #    217  SIheff       Counter:       4   Parms: SM      M1      
 Computing Diagnostic #    219  SIhsnow      Counter:       4   Parms: SM      M1      
 Computing Diagnostic #     83  sIceLoad     Counter:       4   Parms: SM      U1      
 Computing Diagnostic #    223  SIuice       Counter:       4   Parms: UU      M1      
           Vector  Mate for  SIuice       Diagnostic #    224  SIvice   exists 
 Computing Diagnostic #    224  SIvice       Counter:       4   Parms: VV      M1      
           Vector  Mate for  SIvice       Diagnostic #    223  SIuice   exists 
 Computing Diagnostic #    225  SItaux       Counter:       4   Parms: UU      U1      
           Vector  Mate for  SItaux       Diagnostic #    226  SItauy   exists 
 Computing Diagnostic #    226  SItauy       Counter:       4   Parms: VV      U1      
           Vector  Mate for  SItauy       Diagnostic #    225  SItaux   exists 
 Computing Diagnostic #    285  SIareaN      Counter:       4   Parms: SM      MX      
 Computing Diagnostic #    284  SIheffN      Counter:       4   Parms: SM      MX      
 Computing Diagnostic #    286  SIhsnowN     Counter:       4   Parms: SM      MX      
 Compute Stats, Diag. #    214  SIarea    vol(   0 ): 3.580E+14  Parms: SM      M1      
 Compute Stats, Diag. #    217  SIheff    vol(   0 ): 3.580E+14  Parms: SM      M1      
 Compute Stats, Diag. #    219  SIhsnow   vol(   0 ): 3.580E+14  Parms: SM      M1      
 Compute Stats, Diag. #     83  sIceLoad  vol(   0 ): 3.580E+14  Parms: SM      U1      
 Compute Stats, Diag. #    223  SIuice    vol(   0 ): 3.513E+14  Parms: UU      M1      
 Compute Stats, Diag. #    224  SIvice    vol(   0 ): 3.508E+14  Parms: VV      M1      
 Compute Stats, Diag. #    225  SItaux    vol(   0 ): 3.513E+14  Parms: UU      U1      
 Compute Stats, Diag. #    226  SItauy    vol(   0 ): 3.508E+14  Parms: VV      U1      
 cg2d: Sum(rhs),rhsMax =   2.48451735353997E+01  2.90022508810630E-01
 Compute Stats, Diag. #    214  SIarea    vol(   0 ): 3.580E+14  Parms: SM      M1      
 Compute Stats, Diag. #    217  SIheff    vol(   0 ): 3.580E+14  Parms: SM      M1      
 Compute Stats, Diag. #    219  SIhsnow   vol(   0 ): 3.580E+14  Parms: SM      M1      
 Compute Stats, Diag. #     83  sIceLoad  vol(   0 ): 3.580E+14  Parms: SM      U1      
 Compute Stats, Diag. #    223  SIuice    vol(   0 ): 3.513E+14  Parms: UU      M1      
 Compute Stats, Diag. #    224  SIvice    vol(   0 ): 3.508E+14  Parms: VV      M1      
 Compute Stats, Diag. #    225  SItaux    vol(   0 ): 3.513E+14  Parms: UU      U1      
 Compute Stats, Diag. #    226  SItauy    vol(   0 ): 3.508E+14  Parms: VV      U1      
 cg2d: Sum(rhs),rhsMax =   2.48274800347349E+01  2.90147879455210E-01
 Compute Stats, Diag. #    214  SIarea    vol(   0 ): 3.580E+14  Parms: SM      M1      
 Compute Stats, Diag. #    217  SIheff    vol(   0 ): 3.580E+14  Parms: SM      M1      
 Compute Stats, Diag. #    219  SIhsnow   vol(   0 ): 3.580E+14  Parms: SM      M1      
 Compute Stats, Diag. #     83  sIceLoad  vol(   0 ): 3.580E+14  Parms: SM      U1      
 Compute Stats, Diag. #    223  SIuice    vol(   0 ): 3.513E+14  Parms: UU      M1      
 Compute Stats, Diag. #    224  SIvice    vol(   0 ): 3.508E+14  Parms: VV      M1      
 Compute Stats, Diag. #    225  SItaux    vol(   0 ): 3.513E+14  Parms: UU      U1      
 Compute Stats, Diag. #    226  SItauy    vol(   0 ): 3.508E+14  Parms: VV      U1      
 cg2d: Sum(rhs),rhsMax =   2.48114206654098E+01  2.90271845361020E-01
 Compute Stats, Diag. #    214  SIarea    vol(   0 ): 3.580E+14  Parms: SM      M1      
 Compute Stats, Diag. #    217  SIheff    vol(   0 ): 3.580E+14  Parms: SM      M1      
 Compute Stats, Diag. #    219  SIhsnow   vol(   0 ): 3.580E+14  Parms: SM      M1      
 Compute Stats, Diag. #     83  sIceLoad  vol(   0 ): 3.580E+14  Parms: SM      U1      
 Compute Stats, Diag. #    223  SIuice    vol(   0 ): 3.513E+14  Parms: UU      M1      
 Compute Stats, Diag. #    224  SIvice    vol(   0 ): 3.508E+14  Parms: VV      M1      
 Compute Stats, Diag. #    225  SItaux    vol(   0 ): 3.513E+14  Parms: UU      U1      
 Compute Stats, Diag. #    226  SItauy    vol(   0 ): 3.508E+14  Parms: VV      U1      
 cg2d: Sum(rhs),rhsMax =   2.47965817861825E+01  2.90393669765348E-01
 Computing Diagnostic #     86  oceQnet      Counter:       4   Parms: SM      U1      
 Computing Diagnostic #     87  oceQsw       Counter:       4   Parms: SM      U1      
 Computing Diagnostic #     84  oceFWflx     Counter:       4   Parms: SM      U1      
 Computing Diagnostic #     85  oceSflux     Counter:       4   Parms: SM      U1      
 Computing Diagnostic #     80  oceTAUX      Counter:       4   Parms: UU      U1      
           Vector  Mate for  oceTAUX      Diagnostic #     81  oceTAUY  exists 
 Computing Diagnostic #     81  oceTAUY      Counter:       4   Parms: VV      U1      
           Vector  Mate for  oceTAUY      Diagnostic #     80  oceTAUX  exists 
 Computing Diagnostic #     26  THETA        Counter:       4   Parms: SMR     MR      
 Computing Diagnostic #     27  SALT         Counter:       4   Parms: SMR     MR      
 Computing Diagnostic #     30  UVEL         Counter:       4   Parms: UUR     MR      
           Vector  Mate for  UVEL         Diagnostic #     31  VVEL     exists 
 Computing Diagnostic #     31  VVEL         Counter:       4   Parms: VVR     MR      
           Vector  Mate for  VVEL         Diagnostic #     30  UVEL     exists 
 Computing Diagnostic #    214  SIarea       Counter:       4   Parms: SM      M1      
 Computing Diagnostic #    217  SIheff       Counter:       4   Parms: SM      M1      
 Computing Diagnostic #    219  SIhsnow      Counter:       4   Parms: SM      M1      
 Computing Diagnostic #     83  sIceLoad     Counter:       4   Parms: SM      U1      
 Computing Diagnostic #    223  SIuice       Counter:       4   Parms: UU      M1      
           Vector  Mate for  SIuice       Diagnostic #    224  SIvice   exists 
 Computing Diagnostic #    224  SIvice       Counter:       4   Parms: VV      M1      
           Vector  Mate for  SIvice       Diagnostic #    223  SIuice   exists 
 Computing Diagnostic #    225  SItaux       Counter:       4   Parms: UU      U1      
           Vector  Mate for  SItaux       Diagnostic #    226  SItauy   exists 
 Computing Diagnostic #    226  SItauy       Counter:       4   Parms: VV      U1      
           Vector  Mate for  SItauy       Diagnostic #    225  SItaux   exists 
 Computing Diagnostic #    285  SIareaN      Counter:       4   Parms: SM      MX      
 Computing Diagnostic #    284  SIheffN      Counter:       4   Parms: SM      MX      
 Computing Diagnostic #    286  SIhsnowN     Counter:       4   Parms: SM      MX      
 Compute Stats, Diag. #    214  SIarea    vol(   0 ): 3.580E+14  Parms: SM      M1      
 Compute Stats, Diag. #    217  SIheff    vol(   0 ): 3.580E+14  Parms: SM      M1      
 Compute Stats, Diag. #    219  SIhsnow   vol(   0 ): 3.580E+14  Parms: SM      M1      
 Compute Stats, Diag. #     83  sIceLoad  vol(   0 ): 3.580E+14  Parms: SM      U1      
 Compute Stats, Diag. #    223  SIuice    vol(   0 ): 3.513E+14  Parms: UU      M1      
 Compute Stats, Diag. #    224  SIvice    vol(   0 ): 3.508E+14  Parms: VV      M1      
 Compute Stats, Diag. #    225  SItaux    vol(   0 ): 3.513E+14  Parms: UU      U1      
 Compute Stats, Diag. #    226  SItauy    vol(   0 ): 3.508E+14  Parms: VV      U1      
 cg2d: Sum(rhs),rhsMax =   2.47875189479459E+01  2.90513628606958E-01
 Compute Stats, Diag. #    214  SIarea    vol(   0 ): 3.580E+14  Parms: SM      M1      
 Compute Stats, Diag. #    217  SIheff    vol(   0 ): 3.580E+14  Parms: SM      M1      
 Compute Stats, Diag. #    219  SIhsnow   vol(   0 ): 3.580E+14  Parms: SM      M1      
 Compute Stats, Diag. #     83  sIceLoad  vol(   0 ): 3.580E+14  Parms: SM      U1      
 Compute Stats, Diag. #    223  SIuice    vol(   0 ): 3.513E+14  Parms: UU      M1      
 Compute Stats, Diag. #    224  SIvice    vol(   0 ): 3.508E+14  Parms: VV      M1      
 Compute Stats, Diag. #    225  SItaux    vol(   0 ): 3.513E+14  Parms: UU      U1      
 Compute Stats, Diag. #    226  SItauy    vol(   0 ): 3.508E+14  Parms: VV      U1      
 cg2d: Sum(rhs),rhsMax =   2.47670879893096E+01  2.90631334910523E-01
 Compute Stats, Diag. #    214  SIarea    vol(   0 ): 3.580E+14  Parms: SM      M1      
 Compute Stats, Diag. #    217  SIheff    vol(   0 ): 3.580E+14  Parms: SM      M1      
 Compute Stats, Diag. #    219  SIhsnow   vol(   0 ): 3.580E+14  Parms: SM      M1      
 Compute Stats, Diag. #     83  sIceLoad  vol(   0 ): 3.580E+14  Parms: SM      U1      
 Compute Stats, Diag. #    223  SIuice    vol(   0 ): 3.513E+14  Parms: UU      M1      
 Compute Stats, Diag. #    224  SIvice    vol(   0 ): 3.508E+14  Parms: VV      M1      
 Compute Stats, Diag. #    225  SItaux    vol(   0 ): 3.513E+14  Parms: UU      U1      
 Compute Stats, Diag. #    226  SItauy    vol(   0 ): 3.508E+14  Parms: VV      U1      
 cg2d: Sum(rhs),rhsMax =   2.47434909289675E+01  2.90747419151476E-01
 Compute Stats, Diag. #    214  SIarea    vol(   0 ): 3.580E+14  Parms: SM      M1      
 Compute Stats, Diag. #    217  SIheff    vol(   0 ): 3.580E+14  Parms: SM      M1      
 Compute Stats, Diag. #    219  SIhsnow   vol(   0 ): 3.580E+14  Parms: SM      M1      
 Compute Stats, Diag. #     83  sIceLoad  vol(   0 ): 3.580E+14  Parms: SM      U1      
 Compute Stats, Diag. #    223  SIuice    vol(   0 ): 3.513E+14  Parms: UU      M1      
 Compute Stats, Diag. #    224  SIvice    vol(   0 ): 3.508E+14  Parms: VV      M1      
 Compute Stats, Diag. #    225  SItaux    vol(   0 ): 3.513E+14  Parms: UU      U1      
 Compute Stats, Diag. #    226  SItauy    vol(   0 ): 3.508E+14  Parms: VV      U1      
 cg2d: Sum(rhs),rhsMax =   2.47135689737661E+01  2.90860268921630E-01
(PID.TID 0000.0001)      cg2d_init_res =   6.15737598167240E-02
(PID.TID 0000.0001)      cg2d_iters(min,last) =      -1      26
(PID.TID 0000.0001)      cg2d_last_res =   2.64150631806430E-05
(PID.TID 0000.0001) // =======================================================
(PID.TID 0000.0001) // Begin MONITOR dynamic field statistics
(PID.TID 0000.0001) // =======================================================
(PID.TID 0000.0001) %MON time_tsnumber                =                   432
(PID.TID 0000.0001) %MON time_secondsf                =   3.8880000000000E+05
(PID.TID 0000.0001) %MON dynstat_eta_max              =   1.0342321478964E+00
(PID.TID 0000.0001) %MON dynstat_eta_min              =  -1.8713732599707E+00
(PID.TID 0000.0001) %MON dynstat_eta_mean             =  -7.8176911654250E-04
(PID.TID 0000.0001) %MON dynstat_eta_sd               =   6.3600268640182E-01
(PID.TID 0000.0001) %MON dynstat_eta_del2             =   5.7371950139218E-05
(PID.TID 0000.0001) %MON dynstat_uvel_max             =   8.6323544675229E-01
(PID.TID 0000.0001) %MON dynstat_uvel_min             =  -6.0270919543644E-01
(PID.TID 0000.0001) %MON dynstat_uvel_mean            =   1.2904190719179E-03
(PID.TID 0000.0001) %MON dynstat_uvel_sd              =   1.8778020162219E-02
(PID.TID 0000.0001) %MON dynstat_uvel_del2            =   7.7105433493126E-06
(PID.TID 0000.0001) %MON dynstat_vvel_max             =   8.7038789991196E-01
(PID.TID 0000.0001) %MON dynstat_vvel_min             =  -8.4807656356041E-01
(PID.TID 0000.0001) %MON dynstat_vvel_mean            =   1.1578618444219E-03
(PID.TID 0000.0001) %MON dynstat_vvel_sd              =   2.0281731187054E-02
(PID.TID 0000.0001) %MON dynstat_vvel_del2            =   7.8499885996549E-06
(PID.TID 0000.0001) %MON dynstat_wvel_max             =   3.5415792994184E-04
(PID.TID 0000.0001) %MON dynstat_wvel_min             =  -8.7412483779639E-04
(PID.TID 0000.0001) %MON dynstat_wvel_mean            =   6.4784291876481E-09
(PID.TID 0000.0001) %MON dynstat_wvel_sd              =   1.8551649150410E-05
(PID.TID 0000.0001) %MON dynstat_wvel_del2            =   1.4863763851669E-08
(PID.TID 0000.0001) %MON dynstat_theta_max            =   3.2340557373495E+01
(PID.TID 0000.0001) %MON dynstat_theta_min            =  -2.0860661487459E+00
(PID.TID 0000.0001) %MON dynstat_theta_mean           =   3.5903786809817E+00
(PID.TID 0000.0001) %MON dynstat_theta_sd             =   4.4363244468358E+00
(PID.TID 0000.0001) %MON dynstat_theta_del2           =   9.5616908610970E-05
(PID.TID 0000.0001) %MON dynstat_salt_max             =   4.0711558234577E+01
(PID.TID 0000.0001) %MON dynstat_salt_min             =   1.0950736061549E+01
(PID.TID 0000.0001) %MON dynstat_salt_mean            =   3.4725577955152E+01
(PID.TID 0000.0001) %MON dynstat_salt_sd              =   3.7701283074047E-01
(PID.TID 0000.0001) %MON dynstat_salt_del2            =   3.4611765264548E-05
(PID.TID 0000.0001) %MON dynstat_sst_max              =   3.2340557373495E+01
(PID.TID 0000.0001) %MON dynstat_sst_min              =  -1.8062127704415E+00
(PID.TID 0000.0001) %MON dynstat_sst_mean             =   1.8480443979020E+01
(PID.TID 0000.0001) %MON dynstat_sst_sd               =   1.0193560974912E+01
(PID.TID 0000.0001) %MON dynstat_sst_del2             =   8.1943274020295E-04
(PID.TID 0000.0001) %MON dynstat_sss_max              =   3.9115631938492E+01
(PID.TID 0000.0001) %MON dynstat_sss_min              =   1.0950736061549E+01
(PID.TID 0000.0001) %MON dynstat_sss_mean             =   3.4699960110676E+01
(PID.TID 0000.0001) %MON dynstat_sss_sd               =   1.1560977745122E+00
(PID.TID 0000.0001) %MON dynstat_sss_del2             =   1.0400156765642E-03
(PID.TID 0000.0001) %MON forcing_qnet_max             =   7.3896680858267E+02
(PID.TID 0000.0001) %MON forcing_qnet_min             =  -7.6589697265625E+02
(PID.TID 0000.0001) %MON forcing_qnet_mean            =   3.8963316472586E+01
(PID.TID 0000.0001) %MON forcing_qnet_sd              =   1.7062243802715E+02
(PID.TID 0000.0001) %MON forcing_qnet_del2            =   3.1959387037721E-01
(PID.TID 0000.0001) %MON forcing_qsw_max              =   0.0000000000000E+00
(PID.TID 0000.0001) %MON forcing_qsw_min              =  -1.1127873376830E+02
(PID.TID 0000.0001) %MON forcing_qsw_mean             =  -1.3664747853191E+01
(PID.TID 0000.0001) %MON forcing_qsw_sd               =   2.5001888645174E+01
(PID.TID 0000.0001) %MON forcing_qsw_del2             =   1.8740927566399E-02
(PID.TID 0000.0001) %MON forcing_empmr_max            =   1.3099743518978E-03
(PID.TID 0000.0001) %MON forcing_empmr_min            =  -1.4326250553131E-01
(PID.TID 0000.0001) %MON forcing_empmr_mean           =  -1.0821958783170E-06
(PID.TID 0000.0001) %MON forcing_empmr_sd             =   4.4748530349423E-04
(PID.TID 0000.0001) %MON forcing_empmr_del2           =   7.7246199795658E-06
(PID.TID 0000.0001) %MON forcing_fu_max               =   8.8719031214714E-01
(PID.TID 0000.0001) %MON forcing_fu_min               =  -6.0042472870389E-01
(PID.TID 0000.0001) %MON forcing_fu_mean              =   9.1955169255244E-03
(PID.TID 0000.0001) %MON forcing_fu_sd                =   9.8060089096155E-02
(PID.TID 0000.0001) %MON forcing_fu_del2              =   1.2652143084208E-04
(PID.TID 0000.0001) %MON forcing_fv_max               =   7.6914879679680E-01
(PID.TID 0000.0001) %MON forcing_fv_min               =  -6.2091373835411E-01
(PID.TID 0000.0001) %MON forcing_fv_mean              =  -5.3337602755941E-03
(PID.TID 0000.0001) %MON forcing_fv_sd                =   9.4466160984736E-02
(PID.TID 0000.0001) %MON forcing_fv_del2              =   1.0947822728465E-04
(PID.TID 0000.0001) %MON trAdv_CFL_u_max              =   1.5883963344292E-02
(PID.TID 0000.0001) %MON trAdv_CFL_v_max              =   1.5265780279848E-02
(PID.TID 0000.0001) %MON trAdv_CFL_w_max              =   2.4487569261723E-02
(PID.TID 0000.0001) %MON advcfl_uvel_max              =   1.4926702971641E-02
(PID.TID 0000.0001) %MON advcfl_vvel_max              =   1.5450172201860E-02
(PID.TID 0000.0001) %MON advcfl_wvel_max              =   2.5060496594398E-02
(PID.TID 0000.0001) %MON advcfl_W_hf_max              =   2.1250061094313E-02
(PID.TID 0000.0001) %MON pe_b_mean                    =   5.3207998869973E-04
(PID.TID 0000.0001) %MON ke_max                       =   3.7893774834350E-01
(PID.TID 0000.0001) %MON ke_mean                      =   3.6982960816451E-04
(PID.TID 0000.0001) %MON ke_vol                       =   1.3349975967162E+18
(PID.TID 0000.0001) %MON vort_r_min                   =  -2.1932047813263E-05
(PID.TID 0000.0001) %MON vort_r_max                   =   2.4469382374097E-05
(PID.TID 0000.0001) %MON vort_a_mean                  =  -1.9727864647440E-05
(PID.TID 0000.0001) %MON vort_a_sd                    =   7.4542961279584E-05
(PID.TID 0000.0001) %MON vort_p_mean                  =  -2.1760536776001E-05
(PID.TID 0000.0001) %MON vort_p_sd                    =   9.7246815041909E-05
(PID.TID 0000.0001) %MON surfExpan_theta_mean         =  -2.0854484757349E-07
(PID.TID 0000.0001) %MON surfExpan_salt_mean          =   1.8014120540577E-08
(PID.TID 0000.0001) // =======================================================
(PID.TID 0000.0001) // End MONITOR dynamic field statistics
(PID.TID 0000.0001) // =======================================================
(PID.TID 0000.0001) // =======================================================
(PID.TID 0000.0001) // Begin MONITOR SEAICE statistics
(PID.TID 0000.0001) // =======================================================
(PID.TID 0000.0001) %MON seaice_tsnumber              =                   432
(PID.TID 0000.0001) %MON seaice_time_sec              =   3.8880000000000E+05
(PID.TID 0000.0001) %MON seaice_uice_max              =   4.0000000000000E-01
(PID.TID 0000.0001) %MON seaice_uice_min              =  -4.0000000000000E-01
(PID.TID 0000.0001) %MON seaice_uice_mean             =  -8.3054598624025E-03
(PID.TID 0000.0001) %MON seaice_uice_sd               =   1.9802383574176E-01
(PID.TID 0000.0001) %MON seaice_uice_del2             =   2.2931571122150E-04
(PID.TID 0000.0001) %MON seaice_vice_max              =   4.0000000000000E-01
(PID.TID 0000.0001) %MON seaice_vice_min              =  -4.0000000000000E-01
(PID.TID 0000.0001) %MON seaice_vice_mean             =  -2.1960776359499E-02
(PID.TID 0000.0001) %MON seaice_vice_sd               =   2.1302038025672E-01
(PID.TID 0000.0001) %MON seaice_vice_del2             =   2.3932563818061E-04
(PID.TID 0000.0001) %MON seaice_area_max              =   1.0000000000000E+00
(PID.TID 0000.0001) %MON seaice_area_min              =   0.0000000000000E+00
(PID.TID 0000.0001) %MON seaice_area_mean             =   6.7321277285471E-02
(PID.TID 0000.0001) %MON seaice_area_sd               =   2.3243393483635E-01
(PID.TID 0000.0001) %MON seaice_area_del2             =   4.1600544770159E-04
(PID.TID 0000.0001) %MON seaice_heff_max              =   2.5100194536382E+01
(PID.TID 0000.0001) %MON seaice_heff_min              =   0.0000000000000E+00
(PID.TID 0000.0001) %MON seaice_heff_mean             =   2.1418124679041E-01
(PID.TID 0000.0001) %MON seaice_heff_sd               =   1.0681587920395E+00
(PID.TID 0000.0001) %MON seaice_heff_del2             =   3.8726096197570E-03
(PID.TID 0000.0001) %MON seaice_hsnow_max             =   8.2903349271510E+00
(PID.TID 0000.0001) %MON seaice_hsnow_min             =   0.0000000000000E+00
(PID.TID 0000.0001) %MON seaice_hsnow_mean            =   2.4273162645529E-02
(PID.TID 0000.0001) %MON seaice_hsnow_sd              =   1.5676053117963E-01
(PID.TID 0000.0001) %MON seaice_hsnow_del2            =   1.2451620437598E-03
(PID.TID 0000.0001) // =======================================================
(PID.TID 0000.0001) // End MONITOR SEAICE statistics
(PID.TID 0000.0001) // =======================================================
 Computing Diagnostic #     86  oceQnet      Counter:       4   Parms: SM      U1      
 Computing Diagnostic #     87  oceQsw       Counter:       4   Parms: SM      U1      
 Computing Diagnostic #     84  oceFWflx     Counter:       4   Parms: SM      U1      
 Computing Diagnostic #     85  oceSflux     Counter:       4   Parms: SM      U1      
 Computing Diagnostic #     80  oceTAUX      Counter:       4   Parms: UU      U1      
           Vector  Mate for  oceTAUX      Diagnostic #     81  oceTAUY  exists 
 Computing Diagnostic #     81  oceTAUY      Counter:       4   Parms: VV      U1      
           Vector  Mate for  oceTAUY      Diagnostic #     80  oceTAUX  exists 
 Computing Diagnostic #     26  THETA        Counter:       4   Parms: SMR     MR      
 Computing Diagnostic #     27  SALT         Counter:       4   Parms: SMR     MR      
 Computing Diagnostic #     30  UVEL         Counter:       4   Parms: UUR     MR      
           Vector  Mate for  UVEL         Diagnostic #     31  VVEL     exists 
 Computing Diagnostic #     31  VVEL         Counter:       4   Parms: VVR     MR      
           Vector  Mate for  VVEL         Diagnostic #     30  UVEL     exists 
 Computing Diagnostic #    214  SIarea       Counter:       4   Parms: SM      M1      
 Computing Diagnostic #    217  SIheff       Counter:       4   Parms: SM      M1      
 Computing Diagnostic #    219  SIhsnow      Counter:       4   Parms: SM      M1      
 Computing Diagnostic #     83  sIceLoad     Counter:       4   Parms: SM      U1      
 Computing Diagnostic #    223  SIuice       Counter:       4   Parms: UU      M1      
           Vector  Mate for  SIuice       Diagnostic #    224  SIvice   exists 
 Computing Diagnostic #    224  SIvice       Counter:       4   Parms: VV      M1      
           Vector  Mate for  SIvice       Diagnostic #    223  SIuice   exists 
 Computing Diagnostic #    225  SItaux       Counter:       4   Parms: UU      U1      
           Vector  Mate for  SItaux       Diagnostic #    226  SItauy   exists 
 Computing Diagnostic #    226  SItauy       Counter:       4   Parms: VV      U1      
           Vector  Mate for  SItauy       Diagnostic #    225  SItaux   exists 
 Computing Diagnostic #    285  SIareaN      Counter:       4   Parms: SM      MX      
 Computing Diagnostic #    284  SIheffN      Counter:       4   Parms: SM      MX      
 Computing Diagnostic #    286  SIhsnowN     Counter:       4   Parms: SM      MX      
 Compute Stats, Diag. #    214  SIarea    vol(   0 ): 3.580E+14  Parms: SM      M1      
 Compute Stats, Diag. #    217  SIheff    vol(   0 ): 3.580E+14  Parms: SM      M1      
 Compute Stats, Diag. #    219  SIhsnow   vol(   0 ): 3.580E+14  Parms: SM      M1      
 Compute Stats, Diag. #     83  sIceLoad  vol(   0 ): 3.580E+14  Parms: SM      U1      
 Compute Stats, Diag. #    223  SIuice    vol(   0 ): 3.513E+14  Parms: UU      M1      
 Compute Stats, Diag. #    224  SIvice    vol(   0 ): 3.508E+14  Parms: VV      M1      
 Compute Stats, Diag. #    225  SItaux    vol(   0 ): 3.513E+14  Parms: UU      U1      
 Compute Stats, Diag. #    226  SItauy    vol(   0 ): 3.508E+14  Parms: VV      U1      
 cg2d: Sum(rhs),rhsMax =   2.46820493157462E+01  2.90968369208443E-01
 Compute Stats, Diag. #    214  SIarea    vol(   0 ): 3.580E+14  Parms: SM      M1      
 Compute Stats, Diag. #    217  SIheff    vol(   0 ): 3.580E+14  Parms: SM      M1      
 Compute Stats, Diag. #    219  SIhsnow   vol(   0 ): 3.580E+14  Parms: SM      M1      
 Compute Stats, Diag. #     83  sIceLoad  vol(   0 ): 3.580E+14  Parms: SM      U1      
 Compute Stats, Diag. #    223  SIuice    vol(   0 ): 3.513E+14  Parms: UU      M1      
 Compute Stats, Diag. #    224  SIvice    vol(   0 ): 3.508E+14  Parms: VV      M1      
 Compute Stats, Diag. #    225  SItaux    vol(   0 ): 3.513E+14  Parms: UU      U1      
 Compute Stats, Diag. #    226  SItauy    vol(   0 ): 3.508E+14  Parms: VV      U1      
 cg2d: Sum(rhs),rhsMax =   2.46445863208925E+01  2.91071264852611E-01
 Compute Stats, Diag. #    214  SIarea    vol(   0 ): 3.580E+14  Parms: SM      M1      
 Compute Stats, Diag. #    217  SIheff    vol(   0 ): 3.580E+14  Parms: SM      M1      
 Compute Stats, Diag. #    219  SIhsnow   vol(   0 ): 3.580E+14  Parms: SM      M1      
 Compute Stats, Diag. #     83  sIceLoad  vol(   0 ): 3.580E+14  Parms: SM      U1      
 Compute Stats, Diag. #    223  SIuice    vol(   0 ): 3.513E+14  Parms: UU      M1      
 Compute Stats, Diag. #    224  SIvice    vol(   0 ): 3.508E+14  Parms: VV      M1      
 Compute Stats, Diag. #    225  SItaux    vol(   0 ): 3.513E+14  Parms: UU      U1      
 Compute Stats, Diag. #    226  SItauy    vol(   0 ): 3.508E+14  Parms: VV      U1      
 cg2d: Sum(rhs),rhsMax =   2.46079705454929E+01  2.91169673058525E-01
 Compute Stats, Diag. #    214  SIarea    vol(   0 ): 3.580E+14  Parms: SM      M1      
 Compute Stats, Diag. #    217  SIheff    vol(   0 ): 3.580E+14  Parms: SM      M1      
 Compute Stats, Diag. #    219  SIhsnow   vol(   0 ): 3.580E+14  Parms: SM      M1      
 Compute Stats, Diag. #     83  sIceLoad  vol(   0 ): 3.580E+14  Parms: SM      U1      
 Compute Stats, Diag. #    223  SIuice    vol(   0 ): 3.513E+14  Parms: UU      M1      
 Compute Stats, Diag. #    224  SIvice    vol(   0 ): 3.508E+14  Parms: VV      M1      
 Compute Stats, Diag. #    225  SItaux    vol(   0 ): 3.513E+14  Parms: UU      U1      
 Compute Stats, Diag. #    226  SItauy    vol(   0 ): 3.508E+14  Parms: VV      U1      
 cg2d: Sum(rhs),rhsMax =   2.45650639608443E+01  2.91263399014242E-01
 Computing Diagnostic #     86  oceQnet      Counter:       4   Parms: SM      U1      
 Computing Diagnostic #     87  oceQsw       Counter:       4   Parms: SM      U1      
 Computing Diagnostic #     84  oceFWflx     Counter:       4   Parms: SM      U1      
 Computing Diagnostic #     85  oceSflux     Counter:       4   Parms: SM      U1      
 Computing Diagnostic #     80  oceTAUX      Counter:       4   Parms: UU      U1      
           Vector  Mate for  oceTAUX      Diagnostic #     81  oceTAUY  exists 
 Computing Diagnostic #     81  oceTAUY      Counter:       4   Parms: VV      U1      
           Vector  Mate for  oceTAUY      Diagnostic #     80  oceTAUX  exists 
 Computing Diagnostic #     26  THETA        Counter:       4   Parms: SMR     MR      
 Computing Diagnostic #     27  SALT         Counter:       4   Parms: SMR     MR      
 Computing Diagnostic #     30  UVEL         Counter:       4   Parms: UUR     MR      
           Vector  Mate for  UVEL         Diagnostic #     31  VVEL     exists 
 Computing Diagnostic #     31  VVEL         Counter:       4   Parms: VVR     MR      
           Vector  Mate for  VVEL         Diagnostic #     30  UVEL     exists 
 Computing Diagnostic #    214  SIarea       Counter:       4   Parms: SM      M1      
 Computing Diagnostic #    217  SIheff       Counter:       4   Parms: SM      M1      
 Computing Diagnostic #    219  SIhsnow      Counter:       4   Parms: SM      M1      
 Computing Diagnostic #     83  sIceLoad     Counter:       4   Parms: SM      U1      
 Computing Diagnostic #    223  SIuice       Counter:       4   Parms: UU      M1      
           Vector  Mate for  SIuice       Diagnostic #    224  SIvice   exists 
 Computing Diagnostic #    224  SIvice       Counter:       4   Parms: VV      M1      
           Vector  Mate for  SIvice       Diagnostic #    223  SIuice   exists 
 Computing Diagnostic #    225  SItaux       Counter:       4   Parms: UU      U1      
           Vector  Mate for  SItaux       Diagnostic #    226  SItauy   exists 
 Computing Diagnostic #    226  SItauy       Counter:       4   Parms: VV      U1      
           Vector  Mate for  SItauy       Diagnostic #    225  SItaux   exists 
 Computing Diagnostic #    285  SIareaN      Counter:       4   Parms: SM      MX      
 Computing Diagnostic #    284  SIheffN      Counter:       4   Parms: SM      MX      
 Computing Diagnostic #    286  SIhsnowN     Counter:       4   Parms: SM      MX      
 Compute Stats, Diag. #    214  SIarea    vol(   0 ): 3.580E+14  Parms: SM      M1      
 Compute Stats, Diag. #    217  SIheff    vol(   0 ): 3.580E+14  Parms: SM      M1      
 Compute Stats, Diag. #    219  SIhsnow   vol(   0 ): 3.580E+14  Parms: SM      M1      
 Compute Stats, Diag. #     83  sIceLoad  vol(   0 ): 3.580E+14  Parms: SM      U1      
 Compute Stats, Diag. #    223  SIuice    vol(   0 ): 3.513E+14  Parms: UU      M1      
 Compute Stats, Diag. #    224  SIvice    vol(   0 ): 3.508E+14  Parms: VV      M1      
 Compute Stats, Diag. #    225  SItaux    vol(   0 ): 3.513E+14  Parms: UU      U1      
 Compute Stats, Diag. #    226  SItauy    vol(   0 ): 3.508E+14  Parms: VV      U1      
 cg2d: Sum(rhs),rhsMax =   2.45289418973942E+01  2.91352238291807E-01
 Compute Stats, Diag. #    214  SIarea    vol(   0 ): 3.580E+14  Parms: SM      M1      
 Compute Stats, Diag. #    217  SIheff    vol(   0 ): 3.580E+14  Parms: SM      M1      
 Compute Stats, Diag. #    219  SIhsnow   vol(   0 ): 3.580E+14  Parms: SM      M1      
 Compute Stats, Diag. #     83  sIceLoad  vol(   0 ): 3.580E+14  Parms: SM      U1      
 Compute Stats, Diag. #    223  SIuice    vol(   0 ): 3.513E+14  Parms: UU      M1      
 Compute Stats, Diag. #    224  SIvice    vol(   0 ): 3.508E+14  Parms: VV      M1      
 Compute Stats, Diag. #    225  SItaux    vol(   0 ): 3.513E+14  Parms: UU      U1      
 Compute Stats, Diag. #    226  SItauy    vol(   0 ): 3.508E+14  Parms: VV      U1      
 cg2d: Sum(rhs),rhsMax =   2.44826814314376E+01  2.91435947379261E-01
 Compute Stats, Diag. #    214  SIarea    vol(   0 ): 3.580E+14  Parms: SM      M1      
 Compute Stats, Diag. #    217  SIheff    vol(   0 ): 3.580E+14  Parms: SM      M1      
 Compute Stats, Diag. #    219  SIhsnow   vol(   0 ): 3.580E+14  Parms: SM      M1      
 Compute Stats, Diag. #     83  sIceLoad  vol(   0 ): 3.580E+14  Parms: SM      U1      
 Compute Stats, Diag. #    223  SIuice    vol(   0 ): 3.513E+14  Parms: UU      M1      
 Compute Stats, Diag. #    224  SIvice    vol(   0 ): 3.508E+14  Parms: VV      M1      
 Compute Stats, Diag. #    225  SItaux    vol(   0 ): 3.513E+14  Parms: UU      U1      
 Compute Stats, Diag. #    226  SItauy    vol(   0 ): 3.508E+14  Parms: VV      U1      
 cg2d: Sum(rhs),rhsMax =   2.44314649878160E+01  2.91514019560572E-01
 Compute Stats, Diag. #    214  SIarea    vol(   0 ): 3.580E+14  Parms: SM      M1      
 Compute Stats, Diag. #    217  SIheff    vol(   0 ): 3.580E+14  Parms: SM      M1      
 Compute Stats, Diag. #    219  SIhsnow   vol(   0 ): 3.580E+14  Parms: SM      M1      
 Compute Stats, Diag. #     83  sIceLoad  vol(   0 ): 3.580E+14  Parms: SM      U1      
 Compute Stats, Diag. #    223  SIuice    vol(   0 ): 3.513E+14  Parms: UU      M1      
 Compute Stats, Diag. #    224  SIvice    vol(   0 ): 3.508E+14  Parms: VV      M1      
 Compute Stats, Diag. #    225  SItaux    vol(   0 ): 3.513E+14  Parms: UU      U1      
 Compute Stats, Diag. #    226  SItauy    vol(   0 ): 3.508E+14  Parms: VV      U1      
 cg2d: Sum(rhs),rhsMax =   2.43800637163573E+01  2.91586238730845E-01
(PID.TID 0000.0001)      cg2d_init_res =   6.34801719334765E-02
(PID.TID 0000.0001)      cg2d_iters(min,last) =      -1      26
(PID.TID 0000.0001)      cg2d_last_res =   2.35103863752684E-05
(PID.TID 0000.0001) // =======================================================
(PID.TID 0000.0001) // Begin MONITOR dynamic field statistics
(PID.TID 0000.0001) // =======================================================
(PID.TID 0000.0001) %MON time_tsnumber                =                   440
(PID.TID 0000.0001) %MON time_secondsf                =   3.9600000000000E+05
(PID.TID 0000.0001) %MON dynstat_eta_max              =   1.0319028527674E+00
(PID.TID 0000.0001) %MON dynstat_eta_min              =  -1.8693274415406E+00
(PID.TID 0000.0001) %MON dynstat_eta_mean             =  -7.7121928010568E-04
(PID.TID 0000.0001) %MON dynstat_eta_sd               =   6.3516744103804E-01
(PID.TID 0000.0001) %MON dynstat_eta_del2             =   5.7280933616316E-05
(PID.TID 0000.0001) %MON dynstat_uvel_max             =   8.5532201461616E-01
(PID.TID 0000.0001) %MON dynstat_uvel_min             =  -6.0331016489545E-01
(PID.TID 0000.0001) %MON dynstat_uvel_mean            =   1.3166047129125E-03
(PID.TID 0000.0001) %MON dynstat_uvel_sd              =   1.8728633332028E-02
(PID.TID 0000.0001) %MON dynstat_uvel_del2            =   7.6899302348540E-06
(PID.TID 0000.0001) %MON dynstat_vvel_max             =   8.5652968663482E-01
(PID.TID 0000.0001) %MON dynstat_vvel_min             =  -8.4771356494935E-01
(PID.TID 0000.0001) %MON dynstat_vvel_mean            =   1.1335362189643E-03
(PID.TID 0000.0001) %MON dynstat_vvel_sd              =   2.0217000835601E-02
(PID.TID 0000.0001) %MON dynstat_vvel_del2            =   7.8271145531820E-06
(PID.TID 0000.0001) %MON dynstat_wvel_max             =   3.6570534865098E-04
(PID.TID 0000.0001) %MON dynstat_wvel_min             =  -8.7297590944029E-04
(PID.TID 0000.0001) %MON dynstat_wvel_mean            =   8.7399910254475E-09
(PID.TID 0000.0001) %MON dynstat_wvel_sd              =   1.8487539970069E-05
(PID.TID 0000.0001) %MON dynstat_wvel_del2            =   1.4805964024649E-08
(PID.TID 0000.0001) %MON dynstat_theta_max            =   3.2337593544169E+01
(PID.TID 0000.0001) %MON dynstat_theta_min            =  -2.0868354522198E+00
(PID.TID 0000.0001) %MON dynstat_theta_mean           =   3.5903631042668E+00
(PID.TID 0000.0001) %MON dynstat_theta_sd             =   4.4362751083464E+00
(PID.TID 0000.0001) %MON dynstat_theta_del2           =   9.5499171190384E-05
(PID.TID 0000.0001) %MON dynstat_salt_max             =   4.0711557436377E+01
(PID.TID 0000.0001) %MON dynstat_salt_min             =   1.1002614519570E+01
(PID.TID 0000.0001) %MON dynstat_salt_mean            =   3.4725577865626E+01
(PID.TID 0000.0001) %MON dynstat_salt_sd              =   3.7701413997063E-01
(PID.TID 0000.0001) %MON dynstat_salt_del2            =   3.5357861604953E-05
(PID.TID 0000.0001) %MON dynstat_sst_max              =   3.2337593544169E+01
(PID.TID 0000.0001) %MON dynstat_sst_min              =  -1.8060291537379E+00
(PID.TID 0000.0001) %MON dynstat_sst_mean             =   1.8477394875880E+01
(PID.TID 0000.0001) %MON dynstat_sst_sd               =   1.0193482389600E+01
(PID.TID 0000.0001) %MON dynstat_sst_del2             =   8.1846998926953E-04
(PID.TID 0000.0001) %MON dynstat_sss_max              =   3.9114968408500E+01
(PID.TID 0000.0001) %MON dynstat_sss_min              =   1.1002614519570E+01
(PID.TID 0000.0001) %MON dynstat_sss_mean             =   3.4700006894507E+01
(PID.TID 0000.0001) %MON dynstat_sss_sd               =   1.1566167541350E+00
(PID.TID 0000.0001) %MON dynstat_sss_del2             =   1.0754602980997E-03
(PID.TID 0000.0001) %MON forcing_qnet_max             =   7.0611187744141E+02
(PID.TID 0000.0001) %MON forcing_qnet_min             =  -7.5657535971209E+02
(PID.TID 0000.0001) %MON forcing_qnet_mean            =   2.7273781637408E+01
(PID.TID 0000.0001) %MON forcing_qnet_sd              =   1.7159047764288E+02
(PID.TID 0000.0001) %MON forcing_qnet_del2            =   3.1642076406791E-01
(PID.TID 0000.0001) %MON forcing_qsw_max              =   0.0000000000000E+00
(PID.TID 0000.0001) %MON forcing_qsw_min              =  -9.9237840189936E+01
(PID.TID 0000.0001) %MON forcing_qsw_mean             =  -1.4709787040020E+01
(PID.TID 0000.0001) %MON forcing_qsw_sd               =   2.4592912565270E+01
(PID.TID 0000.0001) %MON forcing_qsw_del2             =   2.0067500463499E-02
(PID.TID 0000.0001) %MON forcing_empmr_max            =   1.5942383324727E-03
(PID.TID 0000.0001) %MON forcing_empmr_min            =  -1.4524473249912E-01
(PID.TID 0000.0001) %MON forcing_empmr_mean           =  -1.8590444288333E-06
(PID.TID 0000.0001) %MON forcing_empmr_sd             =   4.0576572456000E-04
(PID.TID 0000.0001) %MON forcing_empmr_del2           =   6.8889521962596E-06
(PID.TID 0000.0001) %MON forcing_fu_max               =   8.3289623260498E-01
(PID.TID 0000.0001) %MON forcing_fu_min               =  -6.3042569484898E-01
(PID.TID 0000.0001) %MON forcing_fu_mean              =   8.7675585401869E-03
(PID.TID 0000.0001) %MON forcing_fu_sd                =   9.8762021003195E-02
(PID.TID 0000.0001) %MON forcing_fu_del2              =   1.2724985091617E-04
(PID.TID 0000.0001) %MON forcing_fv_max               =   7.6506283879280E-01
(PID.TID 0000.0001) %MON forcing_fv_min               =  -6.2475960734478E-01
(PID.TID 0000.0001) %MON forcing_fv_mean              =  -5.1639527827174E-03
(PID.TID 0000.0001) %MON forcing_fv_sd                =   9.4441959826415E-02
(PID.TID 0000.0001) %MON forcing_fv_del2              =   1.0948493187180E-04
(PID.TID 0000.0001) %MON trAdv_CFL_u_max              =   1.5880539168344E-02
(PID.TID 0000.0001) %MON trAdv_CFL_v_max              =   1.5029143005818E-02
(PID.TID 0000.0001) %MON trAdv_CFL_w_max              =   2.5234028283194E-02
(PID.TID 0000.0001) %MON advcfl_uvel_max              =   1.4827725308055E-02
(PID.TID 0000.0001) %MON advcfl_vvel_max              =   1.5204176386013E-02
(PID.TID 0000.0001) %MON advcfl_wvel_max              =   2.5407241836581E-02
(PID.TID 0000.0001) %MON advcfl_W_hf_max              =   2.2123946174900E-02
(PID.TID 0000.0001) %MON pe_b_mean                    =   5.3068335261160E-04
(PID.TID 0000.0001) %MON ke_max                       =   3.7488603038391E-01
(PID.TID 0000.0001) %MON ke_mean                      =   3.6767832212488E-04
(PID.TID 0000.0001) %MON ke_vol                       =   1.3349976002500E+18
(PID.TID 0000.0001) %MON vort_r_min                   =  -2.1716118960588E-05
(PID.TID 0000.0001) %MON vort_r_max                   =   2.4114935446394E-05
(PID.TID 0000.0001) %MON vort_a_mean                  =  -1.9727864647440E-05
(PID.TID 0000.0001) %MON vort_a_sd                    =   7.4542960290337E-05
(PID.TID 0000.0001) %MON vort_p_mean                  =  -2.1760536703669E-05
(PID.TID 0000.0001) %MON vort_p_sd                    =   9.7246792270347E-05
(PID.TID 0000.0001) %MON surfExpan_theta_mean         =  -2.2168523943859E-07
(PID.TID 0000.0001) %MON surfExpan_salt_mean          =   5.7557667869204E-09
(PID.TID 0000.0001) // =======================================================
(PID.TID 0000.0001) // End MONITOR dynamic field statistics
(PID.TID 0000.0001) // =======================================================
(PID.TID 0000.0001) // =======================================================
(PID.TID 0000.0001) // Begin MONITOR SEAICE statistics
(PID.TID 0000.0001) // =======================================================
(PID.TID 0000.0001) %MON seaice_tsnumber              =                   440
(PID.TID 0000.0001) %MON seaice_time_sec              =   3.9600000000000E+05
(PID.TID 0000.0001) %MON seaice_uice_max              =   4.0000000000000E-01
(PID.TID 0000.0001) %MON seaice_uice_min              =  -4.0000000000000E-01
(PID.TID 0000.0001) %MON seaice_uice_mean             =  -8.3054598624025E-03
(PID.TID 0000.0001) %MON seaice_uice_sd               =   1.9802383574176E-01
(PID.TID 0000.0001) %MON seaice_uice_del2             =   2.2931571122150E-04
(PID.TID 0000.0001) %MON seaice_vice_max              =   4.0000000000000E-01
(PID.TID 0000.0001) %MON seaice_vice_min              =  -4.0000000000000E-01
(PID.TID 0000.0001) %MON seaice_vice_mean             =  -2.1960776359499E-02
(PID.TID 0000.0001) %MON seaice_vice_sd               =   2.1302038025672E-01
(PID.TID 0000.0001) %MON seaice_vice_del2             =   2.3932563818061E-04
(PID.TID 0000.0001) %MON seaice_area_max              =   1.0000000000000E+00
(PID.TID 0000.0001) %MON seaice_area_min              =   0.0000000000000E+00
(PID.TID 0000.0001) %MON seaice_area_mean             =   6.7278943256381E-02
(PID.TID 0000.0001) %MON seaice_area_sd               =   2.3235552187876E-01
(PID.TID 0000.0001) %MON seaice_area_del2             =   4.1520231361138E-04
(PID.TID 0000.0001) %MON seaice_heff_max              =   2.5097075784346E+01
(PID.TID 0000.0001) %MON seaice_heff_min              =   0.0000000000000E+00
(PID.TID 0000.0001) %MON seaice_heff_mean             =   2.1413533782123E-01
(PID.TID 0000.0001) %MON seaice_heff_sd               =   1.0681059598411E+00
(PID.TID 0000.0001) %MON seaice_heff_del2             =   3.8717677657173E-03
(PID.TID 0000.0001) %MON seaice_hsnow_max             =   8.2893109384750E+00
(PID.TID 0000.0001) %MON seaice_hsnow_min             =   0.0000000000000E+00
(PID.TID 0000.0001) %MON seaice_hsnow_mean            =   2.4270029003690E-02
(PID.TID 0000.0001) %MON seaice_hsnow_sd              =   1.5674310394125E-01
(PID.TID 0000.0001) %MON seaice_hsnow_del2            =   1.2449882465400E-03
(PID.TID 0000.0001) // =======================================================
(PID.TID 0000.0001) // End MONITOR SEAICE statistics
(PID.TID 0000.0001) // =======================================================
 Computing Diagnostic #     86  oceQnet      Counter:       4   Parms: SM      U1      
 Computing Diagnostic #     87  oceQsw       Counter:       4   Parms: SM      U1      
 Computing Diagnostic #     84  oceFWflx     Counter:       4   Parms: SM      U1      
 Computing Diagnostic #     85  oceSflux     Counter:       4   Parms: SM      U1      
 Computing Diagnostic #     80  oceTAUX      Counter:       4   Parms: UU      U1      
           Vector  Mate for  oceTAUX      Diagnostic #     81  oceTAUY  exists 
 Computing Diagnostic #     81  oceTAUY      Counter:       4   Parms: VV      U1      
           Vector  Mate for  oceTAUY      Diagnostic #     80  oceTAUX  exists 
 Computing Diagnostic #     26  THETA        Counter:       4   Parms: SMR     MR      
 Computing Diagnostic #     27  SALT         Counter:       4   Parms: SMR     MR      
 Computing Diagnostic #     30  UVEL         Counter:       4   Parms: UUR     MR      
           Vector  Mate for  UVEL         Diagnostic #     31  VVEL     exists 
 Computing Diagnostic #     31  VVEL         Counter:       4   Parms: VVR     MR      
           Vector  Mate for  VVEL         Diagnostic #     30  UVEL     exists 
 Computing Diagnostic #    214  SIarea       Counter:       4   Parms: SM      M1      
 Computing Diagnostic #    217  SIheff       Counter:       4   Parms: SM      M1      
 Computing Diagnostic #    219  SIhsnow      Counter:       4   Parms: SM      M1      
 Computing Diagnostic #     83  sIceLoad     Counter:       4   Parms: SM      U1      
 Computing Diagnostic #    223  SIuice       Counter:       4   Parms: UU      M1      
           Vector  Mate for  SIuice       Diagnostic #    224  SIvice   exists 
 Computing Diagnostic #    224  SIvice       Counter:       4   Parms: VV      M1      
           Vector  Mate for  SIvice       Diagnostic #    223  SIuice   exists 
 Computing Diagnostic #    225  SItaux       Counter:       4   Parms: UU      U1      
           Vector  Mate for  SItaux       Diagnostic #    226  SItauy   exists 
 Computing Diagnostic #    226  SItauy       Counter:       4   Parms: VV      U1      
           Vector  Mate for  SItauy       Diagnostic #    225  SItaux   exists 
 Computing Diagnostic #    285  SIareaN      Counter:       4   Parms: SM      MX      
 Computing Diagnostic #    284  SIheffN      Counter:       4   Parms: SM      MX      
 Computing Diagnostic #    286  SIhsnowN     Counter:       4   Parms: SM      MX      
 Compute Stats, Diag. #    214  SIarea    vol(   0 ): 3.580E+14  Parms: SM      M1      
 Compute Stats, Diag. #    217  SIheff    vol(   0 ): 3.580E+14  Parms: SM      M1      
 Compute Stats, Diag. #    219  SIhsnow   vol(   0 ): 3.580E+14  Parms: SM      M1      
 Compute Stats, Diag. #     83  sIceLoad  vol(   0 ): 3.580E+14  Parms: SM      U1      
 Compute Stats, Diag. #    223  SIuice    vol(   0 ): 3.513E+14  Parms: UU      M1      
 Compute Stats, Diag. #    224  SIvice    vol(   0 ): 3.508E+14  Parms: VV      M1      
 Compute Stats, Diag. #    225  SItaux    vol(   0 ): 3.513E+14  Parms: UU      U1      
 Compute Stats, Diag. #    226  SItauy    vol(   0 ): 3.508E+14  Parms: VV      U1      
 cg2d: Sum(rhs),rhsMax =   2.43228328629225E+01  2.91652466371112E-01
 Compute Stats, Diag. #    214  SIarea    vol(   0 ): 3.580E+14  Parms: SM      M1      
 Compute Stats, Diag. #    217  SIheff    vol(   0 ): 3.580E+14  Parms: SM      M1      
 Compute Stats, Diag. #    219  SIhsnow   vol(   0 ): 3.580E+14  Parms: SM      M1      
 Compute Stats, Diag. #     83  sIceLoad  vol(   0 ): 3.580E+14  Parms: SM      U1      
 Compute Stats, Diag. #    223  SIuice    vol(   0 ): 3.513E+14  Parms: UU      M1      
 Compute Stats, Diag. #    224  SIvice    vol(   0 ): 3.508E+14  Parms: VV      M1      
 Compute Stats, Diag. #    225  SItaux    vol(   0 ): 3.513E+14  Parms: UU      U1      
 Compute Stats, Diag. #    226  SItauy    vol(   0 ): 3.508E+14  Parms: VV      U1      
 cg2d: Sum(rhs),rhsMax =   2.42711600578505E+01  2.91712667142522E-01
 Compute Stats, Diag. #    214  SIarea    vol(   0 ): 3.580E+14  Parms: SM      M1      
 Compute Stats, Diag. #    217  SIheff    vol(   0 ): 3.580E+14  Parms: SM      M1      
 Compute Stats, Diag. #    219  SIhsnow   vol(   0 ): 3.580E+14  Parms: SM      M1      
 Compute Stats, Diag. #     83  sIceLoad  vol(   0 ): 3.580E+14  Parms: SM      U1      
 Compute Stats, Diag. #    223  SIuice    vol(   0 ): 3.513E+14  Parms: UU      M1      
 Compute Stats, Diag. #    224  SIvice    vol(   0 ): 3.508E+14  Parms: VV      M1      
 Compute Stats, Diag. #    225  SItaux    vol(   0 ): 3.513E+14  Parms: UU      U1      
 Compute Stats, Diag. #    226  SItauy    vol(   0 ): 3.508E+14  Parms: VV      U1      
 cg2d: Sum(rhs),rhsMax =   2.42214783903851E+01  2.91766698146031E-01
 Compute Stats, Diag. #    214  SIarea    vol(   0 ): 3.580E+14  Parms: SM      M1      
 Compute Stats, Diag. #    217  SIheff    vol(   0 ): 3.580E+14  Parms: SM      M1      
 Compute Stats, Diag. #    219  SIhsnow   vol(   0 ): 3.580E+14  Parms: SM      M1      
 Compute Stats, Diag. #     83  sIceLoad  vol(   0 ): 3.580E+14  Parms: SM      U1      
 Compute Stats, Diag. #    223  SIuice    vol(   0 ): 3.513E+14  Parms: UU      M1      
 Compute Stats, Diag. #    224  SIvice    vol(   0 ): 3.508E+14  Parms: VV      M1      
 Compute Stats, Diag. #    225  SItaux    vol(   0 ): 3.513E+14  Parms: UU      U1      
 Compute Stats, Diag. #    226  SItauy    vol(   0 ): 3.508E+14  Parms: VV      U1      
 cg2d: Sum(rhs),rhsMax =   2.41705278681778E+01  2.91814772585702E-01
 Computing Diagnostic #     86  oceQnet      Counter:       4   Parms: SM      U1      
 Computing Diagnostic #     87  oceQsw       Counter:       4   Parms: SM      U1      
 Computing Diagnostic #     84  oceFWflx     Counter:       4   Parms: SM      U1      
 Computing Diagnostic #     85  oceSflux     Counter:       4   Parms: SM      U1      
 Computing Diagnostic #     80  oceTAUX      Counter:       4   Parms: UU      U1      
           Vector  Mate for  oceTAUX      Diagnostic #     81  oceTAUY  exists 
 Computing Diagnostic #     81  oceTAUY      Counter:       4   Parms: VV      U1      
           Vector  Mate for  oceTAUY      Diagnostic #     80  oceTAUX  exists 
 Computing Diagnostic #     26  THETA        Counter:       4   Parms: SMR     MR      
 Computing Diagnostic #     27  SALT         Counter:       4   Parms: SMR     MR      
 Computing Diagnostic #     30  UVEL         Counter:       4   Parms: UUR     MR      
           Vector  Mate for  UVEL         Diagnostic #     31  VVEL     exists 
 Computing Diagnostic #     31  VVEL         Counter:       4   Parms: VVR     MR      
           Vector  Mate for  VVEL         Diagnostic #     30  UVEL     exists 
 Computing Diagnostic #    214  SIarea       Counter:       4   Parms: SM      M1      
 Computing Diagnostic #    217  SIheff       Counter:       4   Parms: SM      M1      
 Computing Diagnostic #    219  SIhsnow      Counter:       4   Parms: SM      M1      
 Computing Diagnostic #     83  sIceLoad     Counter:       4   Parms: SM      U1      
 Computing Diagnostic #    223  SIuice       Counter:       4   Parms: UU      M1      
           Vector  Mate for  SIuice       Diagnostic #    224  SIvice   exists 
 Computing Diagnostic #    224  SIvice       Counter:       4   Parms: VV      M1      
           Vector  Mate for  SIvice       Diagnostic #    223  SIuice   exists 
 Computing Diagnostic #    225  SItaux       Counter:       4   Parms: UU      U1      
           Vector  Mate for  SItaux       Diagnostic #    226  SItauy   exists 
 Computing Diagnostic #    226  SItauy       Counter:       4   Parms: VV      U1      
           Vector  Mate for  SItauy       Diagnostic #    225  SItaux   exists 
 Computing Diagnostic #    285  SIareaN      Counter:       4   Parms: SM      MX      
 Computing Diagnostic #    284  SIheffN      Counter:       4   Parms: SM      MX      
 Computing Diagnostic #    286  SIhsnowN     Counter:       4   Parms: SM      MX      
 Compute Stats, Diag. #    214  SIarea    vol(   0 ): 3.580E+14  Parms: SM      M1      
 Compute Stats, Diag. #    217  SIheff    vol(   0 ): 3.580E+14  Parms: SM      M1      
 Compute Stats, Diag. #    219  SIhsnow   vol(   0 ): 3.580E+14  Parms: SM      M1      
 Compute Stats, Diag. #     83  sIceLoad  vol(   0 ): 3.580E+14  Parms: SM      U1      
 Compute Stats, Diag. #    223  SIuice    vol(   0 ): 3.513E+14  Parms: UU      M1      
 Compute Stats, Diag. #    224  SIvice    vol(   0 ): 3.508E+14  Parms: VV      M1      
 Compute Stats, Diag. #    225  SItaux    vol(   0 ): 3.513E+14  Parms: UU      U1      
 Compute Stats, Diag. #    226  SItauy    vol(   0 ): 3.508E+14  Parms: VV      U1      
 cg2d: Sum(rhs),rhsMax =   2.41166052594897E+01  2.91858022590962E-01
 Compute Stats, Diag. #    214  SIarea    vol(   0 ): 3.580E+14  Parms: SM      M1      
 Compute Stats, Diag. #    217  SIheff    vol(   0 ): 3.580E+14  Parms: SM      M1      
 Compute Stats, Diag. #    219  SIhsnow   vol(   0 ): 3.580E+14  Parms: SM      M1      
 Compute Stats, Diag. #     83  sIceLoad  vol(   0 ): 3.580E+14  Parms: SM      U1      
 Compute Stats, Diag. #    223  SIuice    vol(   0 ): 3.513E+14  Parms: UU      M1      
 Compute Stats, Diag. #    224  SIvice    vol(   0 ): 3.508E+14  Parms: VV      M1      
 Compute Stats, Diag. #    225  SItaux    vol(   0 ): 3.513E+14  Parms: UU      U1      
 Compute Stats, Diag. #    226  SItauy    vol(   0 ): 3.508E+14  Parms: VV      U1      
 cg2d: Sum(rhs),rhsMax =   2.40536765657134E+01  2.91896970100219E-01
 Compute Stats, Diag. #    214  SIarea    vol(   0 ): 3.580E+14  Parms: SM      M1      
 Compute Stats, Diag. #    217  SIheff    vol(   0 ): 3.580E+14  Parms: SM      M1      
 Compute Stats, Diag. #    219  SIhsnow   vol(   0 ): 3.580E+14  Parms: SM      M1      
 Compute Stats, Diag. #     83  sIceLoad  vol(   0 ): 3.580E+14  Parms: SM      U1      
 Compute Stats, Diag. #    223  SIuice    vol(   0 ): 3.513E+14  Parms: UU      M1      
 Compute Stats, Diag. #    224  SIvice    vol(   0 ): 3.508E+14  Parms: VV      M1      
 Compute Stats, Diag. #    225  SItaux    vol(   0 ): 3.513E+14  Parms: UU      U1      
 Compute Stats, Diag. #    226  SItauy    vol(   0 ): 3.508E+14  Parms: VV      U1      
 cg2d: Sum(rhs),rhsMax =   2.39923858729220E+01  2.91930897059118E-01
 Compute Stats, Diag. #    214  SIarea    vol(   0 ): 3.580E+14  Parms: SM      M1      
 Compute Stats, Diag. #    217  SIheff    vol(   0 ): 3.580E+14  Parms: SM      M1      
 Compute Stats, Diag. #    219  SIhsnow   vol(   0 ): 3.580E+14  Parms: SM      M1      
 Compute Stats, Diag. #     83  sIceLoad  vol(   0 ): 3.580E+14  Parms: SM      U1      
 Compute Stats, Diag. #    223  SIuice    vol(   0 ): 3.513E+14  Parms: UU      M1      
 Compute Stats, Diag. #    224  SIvice    vol(   0 ): 3.508E+14  Parms: VV      M1      
 Compute Stats, Diag. #    225  SItaux    vol(   0 ): 3.513E+14  Parms: UU      U1      
 Compute Stats, Diag. #    226  SItauy    vol(   0 ): 3.508E+14  Parms: VV      U1      
 cg2d: Sum(rhs),rhsMax =   2.39240320416016E+01  2.91959919823581E-01
(PID.TID 0000.0001)      cg2d_init_res =   6.28906298418511E-02
(PID.TID 0000.0001)      cg2d_iters(min,last) =      -1      24
(PID.TID 0000.0001)      cg2d_last_res =   2.59798470215755E-05
(PID.TID 0000.0001) // =======================================================
(PID.TID 0000.0001) // Begin MONITOR dynamic field statistics
(PID.TID 0000.0001) // =======================================================
(PID.TID 0000.0001) %MON time_tsnumber                =                   448
(PID.TID 0000.0001) %MON time_secondsf                =   4.0320000000000E+05
(PID.TID 0000.0001) %MON dynstat_eta_max              =   1.0300315790483E+00
(PID.TID 0000.0001) %MON dynstat_eta_min              =  -1.8665558883392E+00
(PID.TID 0000.0001) %MON dynstat_eta_mean             =  -7.5679354176434E-04
(PID.TID 0000.0001) %MON dynstat_eta_sd               =   6.3422549928857E-01
(PID.TID 0000.0001) %MON dynstat_eta_del2             =   5.7215920974144E-05
(PID.TID 0000.0001) %MON dynstat_uvel_max             =   8.4710469571368E-01
(PID.TID 0000.0001) %MON dynstat_uvel_min             =  -6.0177661834114E-01
(PID.TID 0000.0001) %MON dynstat_uvel_mean            =   1.3371886526018E-03
(PID.TID 0000.0001) %MON dynstat_uvel_sd              =   1.8679069205615E-02
(PID.TID 0000.0001) %MON dynstat_uvel_del2            =   7.6705369738026E-06
(PID.TID 0000.0001) %MON dynstat_vvel_max             =   8.4977595340541E-01
(PID.TID 0000.0001) %MON dynstat_vvel_min             =  -8.4708902671000E-01
(PID.TID 0000.0001) %MON dynstat_vvel_mean            =   1.1095557843949E-03
(PID.TID 0000.0001) %MON dynstat_vvel_sd              =   2.0165084556237E-02
(PID.TID 0000.0001) %MON dynstat_vvel_del2            =   7.8052611002594E-06
(PID.TID 0000.0001) %MON dynstat_wvel_max             =   3.7532413482816E-04
(PID.TID 0000.0001) %MON dynstat_wvel_min             =  -8.7672573367963E-04
(PID.TID 0000.0001) %MON dynstat_wvel_mean            =   1.1088569613533E-08
(PID.TID 0000.0001) %MON dynstat_wvel_sd              =   1.8428563771077E-05
(PID.TID 0000.0001) %MON dynstat_wvel_del2            =   1.4749133595673E-08
(PID.TID 0000.0001) %MON dynstat_theta_max            =   3.2316123515432E+01
(PID.TID 0000.0001) %MON dynstat_theta_min            =  -2.0874566805002E+00
(PID.TID 0000.0001) %MON dynstat_theta_mean           =   3.5903527720122E+00
(PID.TID 0000.0001) %MON dynstat_theta_sd             =   4.4362409518618E+00
(PID.TID 0000.0001) %MON dynstat_theta_del2           =   9.5374476774837E-05
(PID.TID 0000.0001) %MON dynstat_salt_max             =   4.0711556821425E+01
(PID.TID 0000.0001) %MON dynstat_salt_min             =   1.1038973888819E+01
(PID.TID 0000.0001) %MON dynstat_salt_mean            =   3.4725577762942E+01
(PID.TID 0000.0001) %MON dynstat_salt_sd              =   3.7701486173470E-01
(PID.TID 0000.0001) %MON dynstat_salt_del2            =   3.5766674008270E-05
(PID.TID 0000.0001) %MON dynstat_sst_max              =   3.2316123515432E+01
(PID.TID 0000.0001) %MON dynstat_sst_min              =  -1.8059325415889E+00
(PID.TID 0000.0001) %MON dynstat_sst_mean             =   1.8475889661240E+01
(PID.TID 0000.0001) %MON dynstat_sst_sd               =   1.0193228893357E+01
(PID.TID 0000.0001) %MON dynstat_sst_del2             =   8.1749586745833E-04
(PID.TID 0000.0001) %MON dynstat_sss_max              =   3.9114330503508E+01
(PID.TID 0000.0001) %MON dynstat_sss_min              =   1.1038973888819E+01
(PID.TID 0000.0001) %MON dynstat_sss_mean             =   3.4700016783696E+01
(PID.TID 0000.0001) %MON dynstat_sss_sd               =   1.1570315288287E+00
(PID.TID 0000.0001) %MON dynstat_sss_del2             =   1.0943534829101E-03
(PID.TID 0000.0001) %MON forcing_qnet_max             =   5.6880609130859E+02
(PID.TID 0000.0001) %MON forcing_qnet_min             =  -7.2450703622267E+02
(PID.TID 0000.0001) %MON forcing_qnet_mean            =   1.7304899534892E+01
(PID.TID 0000.0001) %MON forcing_qnet_sd              =   1.9306182580364E+02
(PID.TID 0000.0001) %MON forcing_qnet_del2            =   3.0908873587616E-01
(PID.TID 0000.0001) %MON forcing_qsw_max              =   0.0000000000000E+00
(PID.TID 0000.0001) %MON forcing_qsw_min              =  -1.0481696236562E+02
(PID.TID 0000.0001) %MON forcing_qsw_mean             =  -1.5849581935859E+01
(PID.TID 0000.0001) %MON forcing_qsw_sd               =   2.7868741657877E+01
(PID.TID 0000.0001) %MON forcing_qsw_del2             =   2.0359700503331E-02
(PID.TID 0000.0001) %MON forcing_empmr_max            =   1.5204064548016E-03
(PID.TID 0000.0001) %MON forcing_empmr_min            =  -1.1066431552172E-01
(PID.TID 0000.0001) %MON forcing_empmr_mean           =  -2.4721724912061E-06
(PID.TID 0000.0001) %MON forcing_empmr_sd             =   3.1322140550662E-04
(PID.TID 0000.0001) %MON forcing_empmr_del2           =   4.7915551539731E-06
(PID.TID 0000.0001) %MON forcing_fu_max               =   8.7162163853645E-01
(PID.TID 0000.0001) %MON forcing_fu_min               =  -6.4298307354154E-01
(PID.TID 0000.0001) %MON forcing_fu_mean              =   8.3833749344078E-03
(PID.TID 0000.0001) %MON forcing_fu_sd                =   9.8979626211277E-02
(PID.TID 0000.0001) %MON forcing_fu_del2              =   1.2742344304094E-04
(PID.TID 0000.0001) %MON forcing_fv_max               =   7.3985543847084E-01
(PID.TID 0000.0001) %MON forcing_fv_min               =  -6.2667111371469E-01
(PID.TID 0000.0001) %MON forcing_fv_mean              =  -4.6631259163876E-03
(PID.TID 0000.0001) %MON forcing_fv_sd                =   9.4193637637224E-02
(PID.TID 0000.0001) %MON forcing_fv_del2              =   1.0948223182880E-04
(PID.TID 0000.0001) %MON trAdv_CFL_u_max              =   1.5233457180611E-02
(PID.TID 0000.0001) %MON trAdv_CFL_v_max              =   1.4898135860957E-02
(PID.TID 0000.0001) %MON trAdv_CFL_w_max              =   2.5103779904248E-02
(PID.TID 0000.0001) %MON advcfl_uvel_max              =   1.4077703575525E-02
(PID.TID 0000.0001) %MON advcfl_vvel_max              =   1.5084291514670E-02
(PID.TID 0000.0001) %MON advcfl_wvel_max              =   2.2015505138104E-02
(PID.TID 0000.0001) %MON advcfl_W_hf_max              =   2.2106601565889E-02
(PID.TID 0000.0001) %MON pe_b_mean                    =   5.2911050356419E-04
(PID.TID 0000.0001) %MON ke_max                       =   3.7064940604078E-01
(PID.TID 0000.0001) %MON ke_mean                      =   3.6577375070116E-04
(PID.TID 0000.0001) %MON ke_vol                       =   1.3349976052226E+18
(PID.TID 0000.0001) %MON vort_r_min                   =  -2.0503635442919E-05
(PID.TID 0000.0001) %MON vort_r_max                   =   2.3932556373791E-05
(PID.TID 0000.0001) %MON vort_a_mean                  =  -1.9727864647440E-05
(PID.TID 0000.0001) %MON vort_a_sd                    =   7.4542957203407E-05
(PID.TID 0000.0001) %MON vort_p_mean                  =  -2.1760536628354E-05
(PID.TID 0000.0001) %MON vort_p_sd                    =   9.7246766118234E-05
(PID.TID 0000.0001) %MON surfExpan_theta_mean         =  -2.0360382277588E-07
(PID.TID 0000.0001) %MON surfExpan_salt_mean          =  -7.7950456600795E-09
(PID.TID 0000.0001) // =======================================================
(PID.TID 0000.0001) // End MONITOR dynamic field statistics
(PID.TID 0000.0001) // =======================================================
(PID.TID 0000.0001) // =======================================================
(PID.TID 0000.0001) // Begin MONITOR SEAICE statistics
(PID.TID 0000.0001) // =======================================================
(PID.TID 0000.0001) %MON seaice_tsnumber              =                   448
(PID.TID 0000.0001) %MON seaice_time_sec              =   4.0320000000000E+05
(PID.TID 0000.0001) %MON seaice_uice_max              =   4.0000000000000E-01
(PID.TID 0000.0001) %MON seaice_uice_min              =  -4.0000000000000E-01
(PID.TID 0000.0001) %MON seaice_uice_mean             =  -8.3054598624025E-03
(PID.TID 0000.0001) %MON seaice_uice_sd               =   1.9802383574176E-01
(PID.TID 0000.0001) %MON seaice_uice_del2             =   2.2931571122150E-04
(PID.TID 0000.0001) %MON seaice_vice_max              =   4.0000000000000E-01
(PID.TID 0000.0001) %MON seaice_vice_min              =  -4.0000000000000E-01
(PID.TID 0000.0001) %MON seaice_vice_mean             =  -2.1960776359499E-02
(PID.TID 0000.0001) %MON seaice_vice_sd               =   2.1302038025672E-01
(PID.TID 0000.0001) %MON seaice_vice_del2             =   2.3932563818061E-04
(PID.TID 0000.0001) %MON seaice_area_max              =   1.0000000000000E+00
(PID.TID 0000.0001) %MON seaice_area_min              =   0.0000000000000E+00
(PID.TID 0000.0001) %MON seaice_area_mean             =   6.7236580791446E-02
(PID.TID 0000.0001) %MON seaice_area_sd               =   2.3227896320731E-01
(PID.TID 0000.0001) %MON seaice_area_del2             =   4.1439891914025E-04
(PID.TID 0000.0001) %MON seaice_heff_max              =   2.5093985295156E+01
(PID.TID 0000.0001) %MON seaice_heff_min              =   0.0000000000000E+00
(PID.TID 0000.0001) %MON seaice_heff_mean             =   2.1408958202299E-01
(PID.TID 0000.0001) %MON seaice_heff_sd               =   1.0680537907588E+00
(PID.TID 0000.0001) %MON seaice_heff_del2             =   3.8709259638530E-03
(PID.TID 0000.0001) %MON seaice_hsnow_max             =   8.2882952913642E+00
(PID.TID 0000.0001) %MON seaice_hsnow_min             =   0.0000000000000E+00
(PID.TID 0000.0001) %MON seaice_hsnow_mean            =   2.4262716448448E-02
(PID.TID 0000.0001) %MON seaice_hsnow_sd              =   1.5671946546642E-01
(PID.TID 0000.0001) %MON seaice_hsnow_del2            =   1.2448133985048E-03
(PID.TID 0000.0001) // =======================================================
(PID.TID 0000.0001) // End MONITOR SEAICE statistics
(PID.TID 0000.0001) // =======================================================
 Computing Diagnostic #     86  oceQnet      Counter:       4   Parms: SM      U1      
 Computing Diagnostic #     87  oceQsw       Counter:       4   Parms: SM      U1      
 Computing Diagnostic #     84  oceFWflx     Counter:       4   Parms: SM      U1      
 Computing Diagnostic #     85  oceSflux     Counter:       4   Parms: SM      U1      
 Computing Diagnostic #     80  oceTAUX      Counter:       4   Parms: UU      U1      
           Vector  Mate for  oceTAUX      Diagnostic #     81  oceTAUY  exists 
 Computing Diagnostic #     81  oceTAUY      Counter:       4   Parms: VV      U1      
           Vector  Mate for  oceTAUY      Diagnostic #     80  oceTAUX  exists 
 Computing Diagnostic #     26  THETA        Counter:       4   Parms: SMR     MR      
 Computing Diagnostic #     27  SALT         Counter:       4   Parms: SMR     MR      
 Computing Diagnostic #     30  UVEL         Counter:       4   Parms: UUR     MR      
           Vector  Mate for  UVEL         Diagnostic #     31  VVEL     exists 
 Computing Diagnostic #     31  VVEL         Counter:       4   Parms: VVR     MR      
           Vector  Mate for  VVEL         Diagnostic #     30  UVEL     exists 
 Computing Diagnostic #    214  SIarea       Counter:       4   Parms: SM      M1      
 Computing Diagnostic #    217  SIheff       Counter:       4   Parms: SM      M1      
 Computing Diagnostic #    219  SIhsnow      Counter:       4   Parms: SM      M1      
 Computing Diagnostic #     83  sIceLoad     Counter:       4   Parms: SM      U1      
 Computing Diagnostic #    223  SIuice       Counter:       4   Parms: UU      M1      
           Vector  Mate for  SIuice       Diagnostic #    224  SIvice   exists 
 Computing Diagnostic #    224  SIvice       Counter:       4   Parms: VV      M1      
           Vector  Mate for  SIvice       Diagnostic #    223  SIuice   exists 
 Computing Diagnostic #    225  SItaux       Counter:       4   Parms: UU      U1      
           Vector  Mate for  SItaux       Diagnostic #    226  SItauy   exists 
 Computing Diagnostic #    226  SItauy       Counter:       4   Parms: VV      U1      
           Vector  Mate for  SItauy       Diagnostic #    225  SItaux   exists 
 Computing Diagnostic #    285  SIareaN      Counter:       4   Parms: SM      MX      
 Computing Diagnostic #    284  SIheffN      Counter:       4   Parms: SM      MX      
 Computing Diagnostic #    286  SIhsnowN     Counter:       4   Parms: SM      MX      
 Compute Stats, Diag. #    214  SIarea    vol(   0 ): 3.580E+14  Parms: SM      M1      
 Compute Stats, Diag. #    217  SIheff    vol(   0 ): 3.580E+14  Parms: SM      M1      
 Compute Stats, Diag. #    219  SIhsnow   vol(   0 ): 3.580E+14  Parms: SM      M1      
 Compute Stats, Diag. #     83  sIceLoad  vol(   0 ): 3.580E+14  Parms: SM      U1      
 Compute Stats, Diag. #    223  SIuice    vol(   0 ): 3.513E+14  Parms: UU      M1      
 Compute Stats, Diag. #    224  SIvice    vol(   0 ): 3.508E+14  Parms: VV      M1      
 Compute Stats, Diag. #    225  SItaux    vol(   0 ): 3.513E+14  Parms: UU      U1      
 Compute Stats, Diag. #    226  SItauy    vol(   0 ): 3.508E+14  Parms: VV      U1      
 cg2d: Sum(rhs),rhsMax =   2.38605944082464E+01  2.91984801222492E-01
 Compute Stats, Diag. #    214  SIarea    vol(   0 ): 3.580E+14  Parms: SM      M1      
 Compute Stats, Diag. #    217  SIheff    vol(   0 ): 3.580E+14  Parms: SM      M1      
 Compute Stats, Diag. #    219  SIhsnow   vol(   0 ): 3.580E+14  Parms: SM      M1      
 Compute Stats, Diag. #     83  sIceLoad  vol(   0 ): 3.580E+14  Parms: SM      U1      
 Compute Stats, Diag. #    223  SIuice    vol(   0 ): 3.513E+14  Parms: UU      M1      
 Compute Stats, Diag. #    224  SIvice    vol(   0 ): 3.508E+14  Parms: VV      M1      
 Compute Stats, Diag. #    225  SItaux    vol(   0 ): 3.513E+14  Parms: UU      U1      
 Compute Stats, Diag. #    226  SItauy    vol(   0 ): 3.508E+14  Parms: VV      U1      
 cg2d: Sum(rhs),rhsMax =   2.37991680516372E+01  2.92005649050910E-01
 Compute Stats, Diag. #    214  SIarea    vol(   0 ): 3.580E+14  Parms: SM      M1      
 Compute Stats, Diag. #    217  SIheff    vol(   0 ): 3.580E+14  Parms: SM      M1      
 Compute Stats, Diag. #    219  SIhsnow   vol(   0 ): 3.580E+14  Parms: SM      M1      
 Compute Stats, Diag. #     83  sIceLoad  vol(   0 ): 3.580E+14  Parms: SM      U1      
 Compute Stats, Diag. #    223  SIuice    vol(   0 ): 3.513E+14  Parms: UU      M1      
 Compute Stats, Diag. #    224  SIvice    vol(   0 ): 3.508E+14  Parms: VV      M1      
 Compute Stats, Diag. #    225  SItaux    vol(   0 ): 3.513E+14  Parms: UU      U1      
 Compute Stats, Diag. #    226  SItauy    vol(   0 ): 3.508E+14  Parms: VV      U1      
 cg2d: Sum(rhs),rhsMax =   2.37383516453470E+01  2.92023197808238E-01
 Compute Stats, Diag. #    214  SIarea    vol(   0 ): 3.580E+14  Parms: SM      M1      
 Compute Stats, Diag. #    217  SIheff    vol(   0 ): 3.580E+14  Parms: SM      M1      
 Compute Stats, Diag. #    219  SIhsnow   vol(   0 ): 3.580E+14  Parms: SM      M1      
 Compute Stats, Diag. #     83  sIceLoad  vol(   0 ): 3.580E+14  Parms: SM      U1      
 Compute Stats, Diag. #    223  SIuice    vol(   0 ): 3.513E+14  Parms: UU      M1      
 Compute Stats, Diag. #    224  SIvice    vol(   0 ): 3.508E+14  Parms: VV      M1      
 Compute Stats, Diag. #    225  SItaux    vol(   0 ): 3.513E+14  Parms: UU      U1      
 Compute Stats, Diag. #    226  SItauy    vol(   0 ): 3.508E+14  Parms: VV      U1      
 cg2d: Sum(rhs),rhsMax =   2.36771904660737E+01  2.92037923526163E-01
 Computing Diagnostic #     86  oceQnet      Counter:       4   Parms: SM      U1      
 Computing Diagnostic #     87  oceQsw       Counter:       4   Parms: SM      U1      
 Computing Diagnostic #     84  oceFWflx     Counter:       4   Parms: SM      U1      
 Computing Diagnostic #     85  oceSflux     Counter:       4   Parms: SM      U1      
 Computing Diagnostic #     80  oceTAUX      Counter:       4   Parms: UU      U1      
           Vector  Mate for  oceTAUX      Diagnostic #     81  oceTAUY  exists 
 Computing Diagnostic #     81  oceTAUY      Counter:       4   Parms: VV      U1      
           Vector  Mate for  oceTAUY      Diagnostic #     80  oceTAUX  exists 
 Computing Diagnostic #     26  THETA        Counter:       4   Parms: SMR     MR      
 Computing Diagnostic #     27  SALT         Counter:       4   Parms: SMR     MR      
 Computing Diagnostic #     30  UVEL         Counter:       4   Parms: UUR     MR      
           Vector  Mate for  UVEL         Diagnostic #     31  VVEL     exists 
 Computing Diagnostic #     31  VVEL         Counter:       4   Parms: VVR     MR      
           Vector  Mate for  VVEL         Diagnostic #     30  UVEL     exists 
 Computing Diagnostic #    214  SIarea       Counter:       4   Parms: SM      M1      
 Computing Diagnostic #    217  SIheff       Counter:       4   Parms: SM      M1      
 Computing Diagnostic #    219  SIhsnow      Counter:       4   Parms: SM      M1      
 Computing Diagnostic #     83  sIceLoad     Counter:       4   Parms: SM      U1      
 Computing Diagnostic #    223  SIuice       Counter:       4   Parms: UU      M1      
           Vector  Mate for  SIuice       Diagnostic #    224  SIvice   exists 
 Computing Diagnostic #    224  SIvice       Counter:       4   Parms: VV      M1      
           Vector  Mate for  SIvice       Diagnostic #    223  SIuice   exists 
 Computing Diagnostic #    225  SItaux       Counter:       4   Parms: UU      U1      
           Vector  Mate for  SItaux       Diagnostic #    226  SItauy   exists 
 Computing Diagnostic #    226  SItauy       Counter:       4   Parms: VV      U1      
           Vector  Mate for  SItauy       Diagnostic #    225  SItaux   exists 
 Computing Diagnostic #    285  SIareaN      Counter:       4   Parms: SM      MX      
 Computing Diagnostic #    284  SIheffN      Counter:       4   Parms: SM      MX      
 Computing Diagnostic #    286  SIhsnowN     Counter:       4   Parms: SM      MX      
 Compute Stats, Diag. #    214  SIarea    vol(   0 ): 3.580E+14  Parms: SM      M1      
 Compute Stats, Diag. #    217  SIheff    vol(   0 ): 3.580E+14  Parms: SM      M1      
 Compute Stats, Diag. #    219  SIhsnow   vol(   0 ): 3.580E+14  Parms: SM      M1      
 Compute Stats, Diag. #     83  sIceLoad  vol(   0 ): 3.580E+14  Parms: SM      U1      
 Compute Stats, Diag. #    223  SIuice    vol(   0 ): 3.513E+14  Parms: UU      M1      
 Compute Stats, Diag. #    224  SIvice    vol(   0 ): 3.508E+14  Parms: VV      M1      
 Compute Stats, Diag. #    225  SItaux    vol(   0 ): 3.513E+14  Parms: UU      U1      
 Compute Stats, Diag. #    226  SItauy    vol(   0 ): 3.508E+14  Parms: VV      U1      
 cg2d: Sum(rhs),rhsMax =   2.36209572106248E+01  2.92050057555527E-01
 Compute Stats, Diag. #    214  SIarea    vol(   0 ): 3.580E+14  Parms: SM      M1      
 Compute Stats, Diag. #    217  SIheff    vol(   0 ): 3.580E+14  Parms: SM      M1      
 Compute Stats, Diag. #    219  SIhsnow   vol(   0 ): 3.580E+14  Parms: SM      M1      
 Compute Stats, Diag. #     83  sIceLoad  vol(   0 ): 3.580E+14  Parms: SM      U1      
 Compute Stats, Diag. #    223  SIuice    vol(   0 ): 3.513E+14  Parms: UU      M1      
 Compute Stats, Diag. #    224  SIvice    vol(   0 ): 3.508E+14  Parms: VV      M1      
 Compute Stats, Diag. #    225  SItaux    vol(   0 ): 3.513E+14  Parms: UU      U1      
 Compute Stats, Diag. #    226  SItauy    vol(   0 ): 3.508E+14  Parms: VV      U1      
 cg2d: Sum(rhs),rhsMax =   2.35565975612457E+01  2.92060113945755E-01
 Compute Stats, Diag. #    214  SIarea    vol(   0 ): 3.580E+14  Parms: SM      M1      
 Compute Stats, Diag. #    217  SIheff    vol(   0 ): 3.580E+14  Parms: SM      M1      
 Compute Stats, Diag. #    219  SIhsnow   vol(   0 ): 3.580E+14  Parms: SM      M1      
 Compute Stats, Diag. #     83  sIceLoad  vol(   0 ): 3.580E+14  Parms: SM      U1      
 Compute Stats, Diag. #    223  SIuice    vol(   0 ): 3.513E+14  Parms: UU      M1      
 Compute Stats, Diag. #    224  SIvice    vol(   0 ): 3.508E+14  Parms: VV      M1      
 Compute Stats, Diag. #    225  SItaux    vol(   0 ): 3.513E+14  Parms: UU      U1      
 Compute Stats, Diag. #    226  SItauy    vol(   0 ): 3.508E+14  Parms: VV      U1      
 cg2d: Sum(rhs),rhsMax =   2.34932342396777E+01  2.92068099874569E-01
 Compute Stats, Diag. #    214  SIarea    vol(   0 ): 3.580E+14  Parms: SM      M1      
 Compute Stats, Diag. #    217  SIheff    vol(   0 ): 3.580E+14  Parms: SM      M1      
 Compute Stats, Diag. #    219  SIhsnow   vol(   0 ): 3.580E+14  Parms: SM      M1      
 Compute Stats, Diag. #     83  sIceLoad  vol(   0 ): 3.580E+14  Parms: SM      U1      
 Compute Stats, Diag. #    223  SIuice    vol(   0 ): 3.513E+14  Parms: UU      M1      
 Compute Stats, Diag. #    224  SIvice    vol(   0 ): 3.508E+14  Parms: VV      M1      
 Compute Stats, Diag. #    225  SItaux    vol(   0 ): 3.513E+14  Parms: UU      U1      
 Compute Stats, Diag. #    226  SItauy    vol(   0 ): 3.508E+14  Parms: VV      U1      
 cg2d: Sum(rhs),rhsMax =   2.34327136683353E+01  2.92075003254510E-01
(PID.TID 0000.0001)      cg2d_init_res =   6.12270655620388E-02
(PID.TID 0000.0001)      cg2d_iters(min,last) =      -1      25
(PID.TID 0000.0001)      cg2d_last_res =   2.22530275992430E-05
(PID.TID 0000.0001) // =======================================================
(PID.TID 0000.0001) // Begin MONITOR dynamic field statistics
(PID.TID 0000.0001) // =======================================================
(PID.TID 0000.0001) %MON time_tsnumber                =                   456
(PID.TID 0000.0001) %MON time_secondsf                =   4.1040000000000E+05
(PID.TID 0000.0001) %MON dynstat_eta_max              =   1.0286666644411E+00
(PID.TID 0000.0001) %MON dynstat_eta_min              =  -1.8627994765025E+00
(PID.TID 0000.0001) %MON dynstat_eta_mean             =  -7.4125157245130E-04
(PID.TID 0000.0001) %MON dynstat_eta_sd               =   6.3324318210963E-01
(PID.TID 0000.0001) %MON dynstat_eta_del2             =   5.7068434355933E-05
(PID.TID 0000.0001) %MON dynstat_uvel_max             =   8.3940081255372E-01
(PID.TID 0000.0001) %MON dynstat_uvel_min             =  -5.9874260364145E-01
(PID.TID 0000.0001) %MON dynstat_uvel_mean            =   1.3519880611954E-03
(PID.TID 0000.0001) %MON dynstat_uvel_sd              =   1.8639720255049E-02
(PID.TID 0000.0001) %MON dynstat_uvel_del2            =   7.6548612483023E-06
(PID.TID 0000.0001) %MON dynstat_vvel_max             =   8.4622621274301E-01
(PID.TID 0000.0001) %MON dynstat_vvel_min             =  -8.4661445909042E-01
(PID.TID 0000.0001) %MON dynstat_vvel_mean            =   1.0881977872804E-03
(PID.TID 0000.0001) %MON dynstat_vvel_sd              =   2.0121331463554E-02
(PID.TID 0000.0001) %MON dynstat_vvel_del2            =   7.7815226088764E-06
(PID.TID 0000.0001) %MON dynstat_wvel_max             =   3.8123751997406E-04
(PID.TID 0000.0001) %MON dynstat_wvel_min             =  -8.8723881818003E-04
(PID.TID 0000.0001) %MON dynstat_wvel_mean            =   1.2731919424836E-08
(PID.TID 0000.0001) %MON dynstat_wvel_sd              =   1.8381427295884E-05
(PID.TID 0000.0001) %MON dynstat_wvel_del2            =   1.4696252359452E-08
(PID.TID 0000.0001) %MON dynstat_theta_max            =   3.2309186681754E+01
(PID.TID 0000.0001) %MON dynstat_theta_min            =  -2.0878883459894E+00
(PID.TID 0000.0001) %MON dynstat_theta_mean           =   3.5903472773209E+00
(PID.TID 0000.0001) %MON dynstat_theta_sd             =   4.4362261344068E+00
(PID.TID 0000.0001) %MON dynstat_theta_del2           =   9.5248749720276E-05
(PID.TID 0000.0001) %MON dynstat_salt_max             =   4.0711556494231E+01
(PID.TID 0000.0001) %MON dynstat_salt_min             =   1.0980201166661E+01
(PID.TID 0000.0001) %MON dynstat_salt_mean            =   3.4725577645817E+01
(PID.TID 0000.0001) %MON dynstat_salt_sd              =   3.7701511668401E-01
(PID.TID 0000.0001) %MON dynstat_salt_del2            =   3.5752315556436E-05
(PID.TID 0000.0001) %MON dynstat_sst_max              =   3.2309186681754E+01
(PID.TID 0000.0001) %MON dynstat_sst_min              =  -1.8067437099442E+00
(PID.TID 0000.0001) %MON dynstat_sst_mean             =   1.8476104226292E+01
(PID.TID 0000.0001) %MON dynstat_sst_sd               =   1.0193697453049E+01
(PID.TID 0000.0001) %MON dynstat_sst_del2             =   8.1704964329374E-04
(PID.TID 0000.0001) %MON dynstat_sss_max              =   3.9113723623093E+01
(PID.TID 0000.0001) %MON dynstat_sss_min              =   1.0980201166661E+01
(PID.TID 0000.0001) %MON dynstat_sss_mean             =   3.4700029420956E+01
(PID.TID 0000.0001) %MON dynstat_sss_sd               =   1.1573826685235E+00
(PID.TID 0000.0001) %MON dynstat_sss_del2             =   1.0936247134008E-03
(PID.TID 0000.0001) %MON forcing_qnet_max             =   5.7449139404297E+02
(PID.TID 0000.0001) %MON forcing_qnet_min             =  -8.6942602539062E+02
(PID.TID 0000.0001) %MON forcing_qnet_mean            =   6.5762761942601E+00
(PID.TID 0000.0001) %MON forcing_qnet_sd              =   2.0318969081222E+02
(PID.TID 0000.0001) %MON forcing_qnet_del2            =   3.1502432148522E-01
(PID.TID 0000.0001) %MON forcing_qsw_max              =   0.0000000000000E+00
(PID.TID 0000.0001) %MON forcing_qsw_min              =  -1.0967829486038E+02
(PID.TID 0000.0001) %MON forcing_qsw_mean             =  -1.7289262451535E+01
(PID.TID 0000.0001) %MON forcing_qsw_sd               =   2.9311924241813E+01
(PID.TID 0000.0001) %MON forcing_qsw_del2             =   2.0986432675012E-02
(PID.TID 0000.0001) %MON forcing_empmr_max            =   1.2212457368150E-03
(PID.TID 0000.0001) %MON forcing_empmr_min            =  -5.7431768625975E-02
(PID.TID 0000.0001) %MON forcing_empmr_mean           =  -2.1888647458130E-06
(PID.TID 0000.0001) %MON forcing_empmr_sd             =   2.3833070762399E-04
(PID.TID 0000.0001) %MON forcing_empmr_del2           =   2.9019245769694E-06
(PID.TID 0000.0001) %MON forcing_fu_max               =   8.8521972298622E-01
(PID.TID 0000.0001) %MON forcing_fu_min               =  -6.5243502183700E-01
(PID.TID 0000.0001) %MON forcing_fu_mean              =   8.3629776522221E-03
(PID.TID 0000.0001) %MON forcing_fu_sd                =   9.9546095593746E-02
(PID.TID 0000.0001) %MON forcing_fu_del2              =   1.2709054295954E-04
(PID.TID 0000.0001) %MON forcing_fv_max               =   7.6206183433533E-01
(PID.TID 0000.0001) %MON forcing_fv_min               =  -6.2823185872338E-01
(PID.TID 0000.0001) %MON forcing_fv_mean              =  -4.4722221627529E-03
(PID.TID 0000.0001) %MON forcing_fv_sd                =   9.4097284137807E-02
(PID.TID 0000.0001) %MON forcing_fv_del2              =   1.0946968852105E-04
(PID.TID 0000.0001) %MON trAdv_CFL_u_max              =   1.3820481062958E-02
(PID.TID 0000.0001) %MON trAdv_CFL_v_max              =   1.4822741703486E-02
(PID.TID 0000.0001) %MON trAdv_CFL_w_max              =   2.3122092178527E-02
(PID.TID 0000.0001) %MON advcfl_uvel_max              =   1.2523877555885E-02
(PID.TID 0000.0001) %MON advcfl_vvel_max              =   1.5021280408344E-02
(PID.TID 0000.0001) %MON advcfl_wvel_max              =   2.0045086078259E-02
(PID.TID 0000.0001) %MON advcfl_W_hf_max              =   2.0125317617170E-02
(PID.TID 0000.0001) %MON pe_b_mean                    =   5.2747272170605E-04
(PID.TID 0000.0001) %MON ke_max                       =   3.6568109934447E-01
(PID.TID 0000.0001) %MON ke_mean                      =   3.6421224663767E-04
(PID.TID 0000.0001) %MON ke_vol                       =   1.3349976108756E+18
(PID.TID 0000.0001) %MON vort_r_min                   =  -1.8008002195058E-05
(PID.TID 0000.0001) %MON vort_r_max                   =   2.3835912524208E-05
(PID.TID 0000.0001) %MON vort_a_mean                  =  -1.9727864647440E-05
(PID.TID 0000.0001) %MON vort_a_sd                    =   7.4542952538381E-05
(PID.TID 0000.0001) %MON vort_p_mean                  =  -2.1760536572159E-05
(PID.TID 0000.0001) %MON vort_p_sd                    =   9.7246735902802E-05
(PID.TID 0000.0001) %MON surfExpan_theta_mean         =  -1.4860688818240E-07
(PID.TID 0000.0001) %MON surfExpan_salt_mean          =  -1.3444764507943E-08
(PID.TID 0000.0001) // =======================================================
(PID.TID 0000.0001) // End MONITOR dynamic field statistics
(PID.TID 0000.0001) // =======================================================
(PID.TID 0000.0001) // =======================================================
(PID.TID 0000.0001) // Begin MONITOR SEAICE statistics
(PID.TID 0000.0001) // =======================================================
(PID.TID 0000.0001) %MON seaice_tsnumber              =                   456
(PID.TID 0000.0001) %MON seaice_time_sec              =   4.1040000000000E+05
(PID.TID 0000.0001) %MON seaice_uice_max              =   4.0000000000000E-01
(PID.TID 0000.0001) %MON seaice_uice_min              =  -4.0000000000000E-01
(PID.TID 0000.0001) %MON seaice_uice_mean             =  -8.3054598624025E-03
(PID.TID 0000.0001) %MON seaice_uice_sd               =   1.9802383574176E-01
(PID.TID 0000.0001) %MON seaice_uice_del2             =   2.2931571122150E-04
(PID.TID 0000.0001) %MON seaice_vice_max              =   4.0000000000000E-01
(PID.TID 0000.0001) %MON seaice_vice_min              =  -4.0000000000000E-01
(PID.TID 0000.0001) %MON seaice_vice_mean             =  -2.1960776359499E-02
(PID.TID 0000.0001) %MON seaice_vice_sd               =   2.1302038025672E-01
(PID.TID 0000.0001) %MON seaice_vice_del2             =   2.3932563818061E-04
(PID.TID 0000.0001) %MON seaice_area_max              =   1.0000000000000E+00
(PID.TID 0000.0001) %MON seaice_area_min              =   0.0000000000000E+00
(PID.TID 0000.0001) %MON seaice_area_mean             =   6.7193970502245E-02
(PID.TID 0000.0001) %MON seaice_area_sd               =   2.3220345925168E-01
(PID.TID 0000.0001) %MON seaice_area_del2             =   4.1362648230976E-04
(PID.TID 0000.0001) %MON seaice_heff_max              =   2.5090950138401E+01
(PID.TID 0000.0001) %MON seaice_heff_min              =   0.0000000000000E+00
(PID.TID 0000.0001) %MON seaice_heff_mean             =   2.1404380767482E-01
(PID.TID 0000.0001) %MON seaice_heff_sd               =   1.0680022455832E+00
(PID.TID 0000.0001) %MON seaice_heff_del2             =   3.8700895334823E-03
(PID.TID 0000.0001) %MON seaice_hsnow_max             =   8.2872986347938E+00
(PID.TID 0000.0001) %MON seaice_hsnow_min             =   0.0000000000000E+00
(PID.TID 0000.0001) %MON seaice_hsnow_mean            =   2.4248966702444E-02
(PID.TID 0000.0001) %MON seaice_hsnow_sd              =   1.5668588652254E-01
(PID.TID 0000.0001) %MON seaice_hsnow_del2            =   1.2446368934324E-03
(PID.TID 0000.0001) // =======================================================
(PID.TID 0000.0001) // End MONITOR SEAICE statistics
(PID.TID 0000.0001) // =======================================================
 Computing Diagnostic #     86  oceQnet      Counter:       4   Parms: SM      U1      
 Computing Diagnostic #     87  oceQsw       Counter:       4   Parms: SM      U1      
 Computing Diagnostic #     84  oceFWflx     Counter:       4   Parms: SM      U1      
 Computing Diagnostic #     85  oceSflux     Counter:       4   Parms: SM      U1      
 Computing Diagnostic #     80  oceTAUX      Counter:       4   Parms: UU      U1      
           Vector  Mate for  oceTAUX      Diagnostic #     81  oceTAUY  exists 
 Computing Diagnostic #     81  oceTAUY      Counter:       4   Parms: VV      U1      
           Vector  Mate for  oceTAUY      Diagnostic #     80  oceTAUX  exists 
 Computing Diagnostic #     26  THETA        Counter:       4   Parms: SMR     MR      
 Computing Diagnostic #     27  SALT         Counter:       4   Parms: SMR     MR      
 Computing Diagnostic #     30  UVEL         Counter:       4   Parms: UUR     MR      
           Vector  Mate for  UVEL         Diagnostic #     31  VVEL     exists 
 Computing Diagnostic #     31  VVEL         Counter:       4   Parms: VVR     MR      
           Vector  Mate for  VVEL         Diagnostic #     30  UVEL     exists 
 Computing Diagnostic #    214  SIarea       Counter:       4   Parms: SM      M1      
 Computing Diagnostic #    217  SIheff       Counter:       4   Parms: SM      M1      
 Computing Diagnostic #    219  SIhsnow      Counter:       4   Parms: SM      M1      
 Computing Diagnostic #     83  sIceLoad     Counter:       4   Parms: SM      U1      
 Computing Diagnostic #    223  SIuice       Counter:       4   Parms: UU      M1      
           Vector  Mate for  SIuice       Diagnostic #    224  SIvice   exists 
 Computing Diagnostic #    224  SIvice       Counter:       4   Parms: VV      M1      
           Vector  Mate for  SIvice       Diagnostic #    223  SIuice   exists 
 Computing Diagnostic #    225  SItaux       Counter:       4   Parms: UU      U1      
           Vector  Mate for  SItaux       Diagnostic #    226  SItauy   exists 
 Computing Diagnostic #    226  SItauy       Counter:       4   Parms: VV      U1      
           Vector  Mate for  SItauy       Diagnostic #    225  SItaux   exists 
 Computing Diagnostic #    285  SIareaN      Counter:       4   Parms: SM      MX      
 Computing Diagnostic #    284  SIheffN      Counter:       4   Parms: SM      MX      
 Computing Diagnostic #    286  SIhsnowN     Counter:       4   Parms: SM      MX      
 Compute Stats, Diag. #    214  SIarea    vol(   0 ): 3.580E+14  Parms: SM      M1      
 Compute Stats, Diag. #    217  SIheff    vol(   0 ): 3.580E+14  Parms: SM      M1      
 Compute Stats, Diag. #    219  SIhsnow   vol(   0 ): 3.580E+14  Parms: SM      M1      
 Compute Stats, Diag. #     83  sIceLoad  vol(   0 ): 3.580E+14  Parms: SM      U1      
 Compute Stats, Diag. #    223  SIuice    vol(   0 ): 3.513E+14  Parms: UU      M1      
 Compute Stats, Diag. #    224  SIvice    vol(   0 ): 3.508E+14  Parms: VV      M1      
 Compute Stats, Diag. #    225  SItaux    vol(   0 ): 3.513E+14  Parms: UU      U1      
 Compute Stats, Diag. #    226  SItauy    vol(   0 ): 3.508E+14  Parms: VV      U1      
 cg2d: Sum(rhs),rhsMax =   2.33666287082168E+01  2.92081136316247E-01
 Compute Stats, Diag. #    214  SIarea    vol(   0 ): 3.580E+14  Parms: SM      M1      
 Compute Stats, Diag. #    217  SIheff    vol(   0 ): 3.580E+14  Parms: SM      M1      
 Compute Stats, Diag. #    219  SIhsnow   vol(   0 ): 3.580E+14  Parms: SM      M1      
 Compute Stats, Diag. #     83  sIceLoad  vol(   0 ): 3.580E+14  Parms: SM      U1      
 Compute Stats, Diag. #    223  SIuice    vol(   0 ): 3.513E+14  Parms: UU      M1      
 Compute Stats, Diag. #    224  SIvice    vol(   0 ): 3.508E+14  Parms: VV      M1      
 Compute Stats, Diag. #    225  SItaux    vol(   0 ): 3.513E+14  Parms: UU      U1      
 Compute Stats, Diag. #    226  SItauy    vol(   0 ): 3.508E+14  Parms: VV      U1      
 cg2d: Sum(rhs),rhsMax =   2.32932435113255E+01  2.92086731932672E-01
 Compute Stats, Diag. #    214  SIarea    vol(   0 ): 3.580E+14  Parms: SM      M1      
 Compute Stats, Diag. #    217  SIheff    vol(   0 ): 3.580E+14  Parms: SM      M1      
 Compute Stats, Diag. #    219  SIhsnow   vol(   0 ): 3.580E+14  Parms: SM      M1      
 Compute Stats, Diag. #     83  sIceLoad  vol(   0 ): 3.580E+14  Parms: SM      U1      
 Compute Stats, Diag. #    223  SIuice    vol(   0 ): 3.513E+14  Parms: UU      M1      
 Compute Stats, Diag. #    224  SIvice    vol(   0 ): 3.508E+14  Parms: VV      M1      
 Compute Stats, Diag. #    225  SItaux    vol(   0 ): 3.513E+14  Parms: UU      U1      
 Compute Stats, Diag. #    226  SItauy    vol(   0 ): 3.508E+14  Parms: VV      U1      
 cg2d: Sum(rhs),rhsMax =   2.32220284608387E+01  2.92091024190635E-01
 Compute Stats, Diag. #    214  SIarea    vol(   0 ): 3.580E+14  Parms: SM      M1      
 Compute Stats, Diag. #    217  SIheff    vol(   0 ): 3.580E+14  Parms: SM      M1      
 Compute Stats, Diag. #    219  SIhsnow   vol(   0 ): 3.580E+14  Parms: SM      M1      
 Compute Stats, Diag. #     83  sIceLoad  vol(   0 ): 3.580E+14  Parms: SM      U1      
 Compute Stats, Diag. #    223  SIuice    vol(   0 ): 3.513E+14  Parms: UU      M1      
 Compute Stats, Diag. #    224  SIvice    vol(   0 ): 3.508E+14  Parms: VV      M1      
 Compute Stats, Diag. #    225  SItaux    vol(   0 ): 3.513E+14  Parms: UU      U1      
 Compute Stats, Diag. #    226  SItauy    vol(   0 ): 3.508E+14  Parms: VV      U1      
 cg2d: Sum(rhs),rhsMax =   2.31501746560155E+01  2.92093907695564E-01
 Computing Diagnostic #     86  oceQnet      Counter:       4   Parms: SM      U1      
 Computing Diagnostic #     87  oceQsw       Counter:       4   Parms: SM      U1      
 Computing Diagnostic #     84  oceFWflx     Counter:       4   Parms: SM      U1      
 Computing Diagnostic #     85  oceSflux     Counter:       4   Parms: SM      U1      
 Computing Diagnostic #     80  oceTAUX      Counter:       4   Parms: UU      U1      
           Vector  Mate for  oceTAUX      Diagnostic #     81  oceTAUY  exists 
 Computing Diagnostic #     81  oceTAUY      Counter:       4   Parms: VV      U1      
           Vector  Mate for  oceTAUY      Diagnostic #     80  oceTAUX  exists 
 Computing Diagnostic #     26  THETA        Counter:       4   Parms: SMR     MR      
 Computing Diagnostic #     27  SALT         Counter:       4   Parms: SMR     MR      
 Computing Diagnostic #     30  UVEL         Counter:       4   Parms: UUR     MR      
           Vector  Mate for  UVEL         Diagnostic #     31  VVEL     exists 
 Computing Diagnostic #     31  VVEL         Counter:       4   Parms: VVR     MR      
           Vector  Mate for  VVEL         Diagnostic #     30  UVEL     exists 
 Computing Diagnostic #    214  SIarea       Counter:       4   Parms: SM      M1      
 Computing Diagnostic #    217  SIheff       Counter:       4   Parms: SM      M1      
 Computing Diagnostic #    219  SIhsnow      Counter:       4   Parms: SM      M1      
 Computing Diagnostic #     83  sIceLoad     Counter:       4   Parms: SM      U1      
 Computing Diagnostic #    223  SIuice       Counter:       4   Parms: UU      M1      
           Vector  Mate for  SIuice       Diagnostic #    224  SIvice   exists 
 Computing Diagnostic #    224  SIvice       Counter:       4   Parms: VV      M1      
           Vector  Mate for  SIvice       Diagnostic #    223  SIuice   exists 
 Computing Diagnostic #    225  SItaux       Counter:       4   Parms: UU      U1      
           Vector  Mate for  SItaux       Diagnostic #    226  SItauy   exists 
 Computing Diagnostic #    226  SItauy       Counter:       4   Parms: VV      U1      
           Vector  Mate for  SItauy       Diagnostic #    225  SItaux   exists 
 Computing Diagnostic #    285  SIareaN      Counter:       4   Parms: SM      MX      
 Computing Diagnostic #    284  SIheffN      Counter:       4   Parms: SM      MX      
 Computing Diagnostic #    286  SIhsnowN     Counter:       4   Parms: SM      MX      
 Compute Stats, Diag. #    214  SIarea    vol(   0 ): 3.580E+14  Parms: SM      M1      
 Compute Stats, Diag. #    217  SIheff    vol(   0 ): 3.580E+14  Parms: SM      M1      
 Compute Stats, Diag. #    219  SIhsnow   vol(   0 ): 3.580E+14  Parms: SM      M1      
 Compute Stats, Diag. #     83  sIceLoad  vol(   0 ): 3.580E+14  Parms: SM      U1      
 Compute Stats, Diag. #    223  SIuice    vol(   0 ): 3.513E+14  Parms: UU      M1      
 Compute Stats, Diag. #    224  SIvice    vol(   0 ): 3.508E+14  Parms: VV      M1      
 Compute Stats, Diag. #    225  SItaux    vol(   0 ): 3.513E+14  Parms: UU      U1      
 Compute Stats, Diag. #    226  SItauy    vol(   0 ): 3.508E+14  Parms: VV      U1      
 cg2d: Sum(rhs),rhsMax =   2.30761396917920E+01  2.92094945511717E-01
 Compute Stats, Diag. #    214  SIarea    vol(   0 ): 3.580E+14  Parms: SM      M1      
 Compute Stats, Diag. #    217  SIheff    vol(   0 ): 3.580E+14  Parms: SM      M1      
 Compute Stats, Diag. #    219  SIhsnow   vol(   0 ): 3.580E+14  Parms: SM      M1      
 Compute Stats, Diag. #     83  sIceLoad  vol(   0 ): 3.580E+14  Parms: SM      U1      
 Compute Stats, Diag. #    223  SIuice    vol(   0 ): 3.513E+14  Parms: UU      M1      
 Compute Stats, Diag. #    224  SIvice    vol(   0 ): 3.508E+14  Parms: VV      M1      
 Compute Stats, Diag. #    225  SItaux    vol(   0 ): 3.513E+14  Parms: UU      U1      
 Compute Stats, Diag. #    226  SItauy    vol(   0 ): 3.508E+14  Parms: VV      U1      
 cg2d: Sum(rhs),rhsMax =   2.30008020566813E+01  2.92093800781206E-01
 Compute Stats, Diag. #    214  SIarea    vol(   0 ): 3.580E+14  Parms: SM      M1      
 Compute Stats, Diag. #    217  SIheff    vol(   0 ): 3.580E+14  Parms: SM      M1      
 Compute Stats, Diag. #    219  SIhsnow   vol(   0 ): 3.580E+14  Parms: SM      M1      
 Compute Stats, Diag. #     83  sIceLoad  vol(   0 ): 3.580E+14  Parms: SM      U1      
 Compute Stats, Diag. #    223  SIuice    vol(   0 ): 3.513E+14  Parms: UU      M1      
 Compute Stats, Diag. #    224  SIvice    vol(   0 ): 3.508E+14  Parms: VV      M1      
 Compute Stats, Diag. #    225  SItaux    vol(   0 ): 3.513E+14  Parms: UU      U1      
 Compute Stats, Diag. #    226  SItauy    vol(   0 ): 3.508E+14  Parms: VV      U1      
 cg2d: Sum(rhs),rhsMax =   2.29273987070719E+01  2.92089872092970E-01
 Compute Stats, Diag. #    214  SIarea    vol(   0 ): 3.580E+14  Parms: SM      M1      
 Compute Stats, Diag. #    217  SIheff    vol(   0 ): 3.580E+14  Parms: SM      M1      
 Compute Stats, Diag. #    219  SIhsnow   vol(   0 ): 3.580E+14  Parms: SM      M1      
 Compute Stats, Diag. #     83  sIceLoad  vol(   0 ): 3.580E+14  Parms: SM      U1      
 Compute Stats, Diag. #    223  SIuice    vol(   0 ): 3.513E+14  Parms: UU      M1      
 Compute Stats, Diag. #    224  SIvice    vol(   0 ): 3.508E+14  Parms: VV      M1      
 Compute Stats, Diag. #    225  SItaux    vol(   0 ): 3.513E+14  Parms: UU      U1      
 Compute Stats, Diag. #    226  SItauy    vol(   0 ): 3.508E+14  Parms: VV      U1      
 cg2d: Sum(rhs),rhsMax =   2.28520621082250E+01  2.92082785413148E-01
(PID.TID 0000.0001)      cg2d_init_res =   5.96283098000618E-02
(PID.TID 0000.0001)      cg2d_iters(min,last) =      -1      26
(PID.TID 0000.0001)      cg2d_last_res =   2.24996869369439E-05
(PID.TID 0000.0001) // =======================================================
(PID.TID 0000.0001) // Begin MONITOR dynamic field statistics
(PID.TID 0000.0001) // =======================================================
(PID.TID 0000.0001) %MON time_tsnumber                =                   464
(PID.TID 0000.0001) %MON time_secondsf                =   4.1760000000000E+05
(PID.TID 0000.0001) %MON dynstat_eta_max              =   1.0274031161891E+00
(PID.TID 0000.0001) %MON dynstat_eta_min              =  -1.8581711778807E+00
(PID.TID 0000.0001) %MON dynstat_eta_mean             =  -7.2288370912696E-04
(PID.TID 0000.0001) %MON dynstat_eta_sd               =   6.3230734682760E-01
(PID.TID 0000.0001) %MON dynstat_eta_del2             =   5.6952449765483E-05
(PID.TID 0000.0001) %MON dynstat_uvel_max             =   8.3145962570158E-01
(PID.TID 0000.0001) %MON dynstat_uvel_min             =  -5.9453028665815E-01
(PID.TID 0000.0001) %MON dynstat_uvel_mean            =   1.3583488944738E-03
(PID.TID 0000.0001) %MON dynstat_uvel_sd              =   1.8607018726416E-02
(PID.TID 0000.0001) %MON dynstat_uvel_del2            =   7.6421925434899E-06
(PID.TID 0000.0001) %MON dynstat_vvel_max             =   8.4362135667286E-01
(PID.TID 0000.0001) %MON dynstat_vvel_min             =  -8.4658466057740E-01
(PID.TID 0000.0001) %MON dynstat_vvel_mean            =   1.0691615001955E-03
(PID.TID 0000.0001) %MON dynstat_vvel_sd              =   2.0087335215286E-02
(PID.TID 0000.0001) %MON dynstat_vvel_del2            =   7.7590088295067E-06
(PID.TID 0000.0001) %MON dynstat_wvel_max             =   3.8209715375324E-04
(PID.TID 0000.0001) %MON dynstat_wvel_min             =  -9.0071440453668E-04
(PID.TID 0000.0001) %MON dynstat_wvel_mean            =   1.2457101489108E-08
(PID.TID 0000.0001) %MON dynstat_wvel_sd              =   1.8347176542125E-05
(PID.TID 0000.0001) %MON dynstat_wvel_del2            =   1.4647896577011E-08
(PID.TID 0000.0001) %MON dynstat_theta_max            =   3.2290332961581E+01
(PID.TID 0000.0001) %MON dynstat_theta_min            =  -2.0880894906654E+00
(PID.TID 0000.0001) %MON dynstat_theta_mean           =   3.5903469385946E+00
(PID.TID 0000.0001) %MON dynstat_theta_sd             =   4.4362363938141E+00
(PID.TID 0000.0001) %MON dynstat_theta_del2           =   9.5121306491114E-05
(PID.TID 0000.0001) %MON dynstat_salt_max             =   4.0711556347563E+01
(PID.TID 0000.0001) %MON dynstat_salt_min             =   1.0774722243928E+01
(PID.TID 0000.0001) %MON dynstat_salt_mean            =   3.4725577495656E+01
(PID.TID 0000.0001) %MON dynstat_salt_sd              =   3.7701566225886E-01
(PID.TID 0000.0001) %MON dynstat_salt_del2            =   3.5543755489015E-05
(PID.TID 0000.0001) %MON dynstat_sst_max              =   3.2290332961581E+01
(PID.TID 0000.0001) %MON dynstat_sst_min              =  -1.8066542575565E+00
(PID.TID 0000.0001) %MON dynstat_sst_mean             =   1.8477803370985E+01
(PID.TID 0000.0001) %MON dynstat_sst_sd               =   1.0195311556525E+01
(PID.TID 0000.0001) %MON dynstat_sst_del2             =   8.1681352273837E-04
(PID.TID 0000.0001) %MON dynstat_sss_max              =   3.9113155071547E+01
(PID.TID 0000.0001) %MON dynstat_sss_min              =   1.0774722243928E+01
(PID.TID 0000.0001) %MON dynstat_sss_mean             =   3.4700053093446E+01
(PID.TID 0000.0001) %MON dynstat_sss_sd               =   1.1577553053832E+00
(PID.TID 0000.0001) %MON dynstat_sss_del2             =   1.0846311901618E-03
(PID.TID 0000.0001) %MON forcing_qnet_max             =   6.9150354003906E+02
(PID.TID 0000.0001) %MON forcing_qnet_min             =  -6.9739723117727E+02
(PID.TID 0000.0001) %MON forcing_qnet_mean            =  -3.1475023899636E+00
(PID.TID 0000.0001) %MON forcing_qnet_sd              =   1.9334360591554E+02
(PID.TID 0000.0001) %MON forcing_qnet_del2            =   3.1119257109784E-01
(PID.TID 0000.0001) %MON forcing_qsw_max              =   0.0000000000000E+00
(PID.TID 0000.0001) %MON forcing_qsw_min              =  -1.0806066381896E+02
(PID.TID 0000.0001) %MON forcing_qsw_mean             =  -1.8730644960837E+01
(PID.TID 0000.0001) %MON forcing_qsw_sd               =   2.8403200376121E+01
(PID.TID 0000.0001) %MON forcing_qsw_del2             =   2.1284879962925E-02
(PID.TID 0000.0001) %MON forcing_empmr_max            =   7.5793237192556E-04
(PID.TID 0000.0001) %MON forcing_empmr_min            =  -6.5452463924885E-02
(PID.TID 0000.0001) %MON forcing_empmr_mean           =  -2.7247202336965E-06
(PID.TID 0000.0001) %MON forcing_empmr_sd             =   2.7576434615872E-04
(PID.TID 0000.0001) %MON forcing_empmr_del2           =   2.8893388572218E-06
(PID.TID 0000.0001) %MON forcing_fu_max               =   8.5379123687744E-01
(PID.TID 0000.0001) %MON forcing_fu_min               =  -6.6218768885431E-01
(PID.TID 0000.0001) %MON forcing_fu_mean              =   8.4676539087817E-03
(PID.TID 0000.0001) %MON forcing_fu_sd                =   1.0025277302921E-01
(PID.TID 0000.0001) %MON forcing_fu_del2              =   1.2718047056933E-04
(PID.TID 0000.0001) %MON forcing_fv_max               =   7.9612049460411E-01
(PID.TID 0000.0001) %MON forcing_fv_min               =  -6.2907609943910E-01
(PID.TID 0000.0001) %MON forcing_fv_mean              =  -4.8939166292542E-03
(PID.TID 0000.0001) %MON forcing_fv_sd                =   9.4283544243330E-02
(PID.TID 0000.0001) %MON forcing_fv_del2              =   1.0967935410198E-04
(PID.TID 0000.0001) %MON trAdv_CFL_u_max              =   1.1845297805140E-02
(PID.TID 0000.0001) %MON trAdv_CFL_v_max              =   1.4773516324907E-02
(PID.TID 0000.0001) %MON trAdv_CFL_w_max              =   2.1121685967363E-02
(PID.TID 0000.0001) %MON advcfl_uvel_max              =   1.0375304164910E-02
(PID.TID 0000.0001) %MON advcfl_vvel_max              =   1.4975041857867E-02
(PID.TID 0000.0001) %MON advcfl_wvel_max              =   1.9047138519947E-02
(PID.TID 0000.0001) %MON advcfl_W_hf_max              =   1.9953136290604E-02
(PID.TID 0000.0001) %MON pe_b_mean                    =   5.2591479208710E-04
(PID.TID 0000.0001) %MON ke_max                       =   3.6548984565437E-01
(PID.TID 0000.0001) %MON ke_mean                      =   3.6295427355458E-04
(PID.TID 0000.0001) %MON ke_vol                       =   1.3349976172837E+18
(PID.TID 0000.0001) %MON vort_r_min                   =  -1.6023776638722E-05
(PID.TID 0000.0001) %MON vort_r_max                   =   2.3777856516589E-05
(PID.TID 0000.0001) %MON vort_a_mean                  =  -1.9727864647440E-05
(PID.TID 0000.0001) %MON vort_a_sd                    =   7.4542946492689E-05
(PID.TID 0000.0001) %MON vort_p_mean                  =  -2.1760536539238E-05
(PID.TID 0000.0001) %MON vort_p_sd                    =   9.7246702650033E-05
(PID.TID 0000.0001) %MON surfExpan_theta_mean         =  -8.6366831286860E-08
(PID.TID 0000.0001) %MON surfExpan_salt_mean          =  -6.1571199162027E-10
(PID.TID 0000.0001) // =======================================================
(PID.TID 0000.0001) // End MONITOR dynamic field statistics
(PID.TID 0000.0001) // =======================================================
(PID.TID 0000.0001) // =======================================================
(PID.TID 0000.0001) // Begin MONITOR SEAICE statistics
(PID.TID 0000.0001) // =======================================================
(PID.TID 0000.0001) %MON seaice_tsnumber              =                   464
(PID.TID 0000.0001) %MON seaice_time_sec              =   4.1760000000000E+05
(PID.TID 0000.0001) %MON seaice_uice_max              =   4.0000000000000E-01
(PID.TID 0000.0001) %MON seaice_uice_min              =  -4.0000000000000E-01
(PID.TID 0000.0001) %MON seaice_uice_mean             =  -8.3054598624025E-03
(PID.TID 0000.0001) %MON seaice_uice_sd               =   1.9802383574176E-01
(PID.TID 0000.0001) %MON seaice_uice_del2             =   2.2931571122150E-04
(PID.TID 0000.0001) %MON seaice_vice_max              =   4.0000000000000E-01
(PID.TID 0000.0001) %MON seaice_vice_min              =  -4.0000000000000E-01
(PID.TID 0000.0001) %MON seaice_vice_mean             =  -2.1960776359499E-02
(PID.TID 0000.0001) %MON seaice_vice_sd               =   2.1302038025672E-01
(PID.TID 0000.0001) %MON seaice_vice_del2             =   2.3932563818061E-04
(PID.TID 0000.0001) %MON seaice_area_max              =   1.0000000000000E+00
(PID.TID 0000.0001) %MON seaice_area_min              =   0.0000000000000E+00
(PID.TID 0000.0001) %MON seaice_area_mean             =   6.7151384775415E-02
(PID.TID 0000.0001) %MON seaice_area_sd               =   2.3212846420321E-01
(PID.TID 0000.0001) %MON seaice_area_del2             =   4.1289488457662E-04
(PID.TID 0000.0001) %MON seaice_heff_max              =   2.5087980662007E+01
(PID.TID 0000.0001) %MON seaice_heff_min              =   0.0000000000000E+00
(PID.TID 0000.0001) %MON seaice_heff_mean             =   2.1399813792003E-01
(PID.TID 0000.0001) %MON seaice_heff_sd               =   1.0679515338150E+00
(PID.TID 0000.0001) %MON seaice_heff_del2             =   3.8692650266543E-03
(PID.TID 0000.0001) %MON seaice_hsnow_max             =   8.2863242272870E+00
(PID.TID 0000.0001) %MON seaice_hsnow_min             =   0.0000000000000E+00
(PID.TID 0000.0001) %MON seaice_hsnow_mean            =   2.4232407156013E-02
(PID.TID 0000.0001) %MON seaice_hsnow_sd              =   1.5665113626286E-01
(PID.TID 0000.0001) %MON seaice_hsnow_del2            =   1.2444646441015E-03
(PID.TID 0000.0001) // =======================================================
(PID.TID 0000.0001) // End MONITOR SEAICE statistics
(PID.TID 0000.0001) // =======================================================
 Computing Diagnostic #     86  oceQnet      Counter:       4   Parms: SM      U1      
 Computing Diagnostic #     87  oceQsw       Counter:       4   Parms: SM      U1      
 Computing Diagnostic #     84  oceFWflx     Counter:       4   Parms: SM      U1      
 Computing Diagnostic #     85  oceSflux     Counter:       4   Parms: SM      U1      
 Computing Diagnostic #     80  oceTAUX      Counter:       4   Parms: UU      U1      
           Vector  Mate for  oceTAUX      Diagnostic #     81  oceTAUY  exists 
 Computing Diagnostic #     81  oceTAUY      Counter:       4   Parms: VV      U1      
           Vector  Mate for  oceTAUY      Diagnostic #     80  oceTAUX  exists 
 Computing Diagnostic #     26  THETA        Counter:       4   Parms: SMR     MR      
 Computing Diagnostic #     27  SALT         Counter:       4   Parms: SMR     MR      
 Computing Diagnostic #     30  UVEL         Counter:       4   Parms: UUR     MR      
           Vector  Mate for  UVEL         Diagnostic #     31  VVEL     exists 
 Computing Diagnostic #     31  VVEL         Counter:       4   Parms: VVR     MR      
           Vector  Mate for  VVEL         Diagnostic #     30  UVEL     exists 
 Computing Diagnostic #    214  SIarea       Counter:       4   Parms: SM      M1      
 Computing Diagnostic #    217  SIheff       Counter:       4   Parms: SM      M1      
 Computing Diagnostic #    219  SIhsnow      Counter:       4   Parms: SM      M1      
 Computing Diagnostic #     83  sIceLoad     Counter:       4   Parms: SM      U1      
 Computing Diagnostic #    223  SIuice       Counter:       4   Parms: UU      M1      
           Vector  Mate for  SIuice       Diagnostic #    224  SIvice   exists 
 Computing Diagnostic #    224  SIvice       Counter:       4   Parms: VV      M1      
           Vector  Mate for  SIvice       Diagnostic #    223  SIuice   exists 
 Computing Diagnostic #    225  SItaux       Counter:       4   Parms: UU      U1      
           Vector  Mate for  SItaux       Diagnostic #    226  SItauy   exists 
 Computing Diagnostic #    226  SItauy       Counter:       4   Parms: VV      U1      
           Vector  Mate for  SItauy       Diagnostic #    225  SItaux   exists 
 Computing Diagnostic #    285  SIareaN      Counter:       4   Parms: SM      MX      
 Computing Diagnostic #    284  SIheffN      Counter:       4   Parms: SM      MX      
 Computing Diagnostic #    286  SIhsnowN     Counter:       4   Parms: SM      MX      
 Compute Stats, Diag. #    214  SIarea    vol(   0 ): 3.580E+14  Parms: SM      M1      
 Compute Stats, Diag. #    217  SIheff    vol(   0 ): 3.580E+14  Parms: SM      M1      
 Compute Stats, Diag. #    219  SIhsnow   vol(   0 ): 3.580E+14  Parms: SM      M1      
 Compute Stats, Diag. #     83  sIceLoad  vol(   0 ): 3.580E+14  Parms: SM      U1      
 Compute Stats, Diag. #    223  SIuice    vol(   0 ): 3.513E+14  Parms: UU      M1      
 Compute Stats, Diag. #    224  SIvice    vol(   0 ): 3.508E+14  Parms: VV      M1      
 Compute Stats, Diag. #    225  SItaux    vol(   0 ): 3.513E+14  Parms: UU      U1      
 Compute Stats, Diag. #    226  SItauy    vol(   0 ): 3.508E+14  Parms: VV      U1      
 cg2d: Sum(rhs),rhsMax =   2.27732656142388E+01  2.92072407872808E-01
 Compute Stats, Diag. #    214  SIarea    vol(   0 ): 3.580E+14  Parms: SM      M1      
 Compute Stats, Diag. #    217  SIheff    vol(   0 ): 3.580E+14  Parms: SM      M1      
 Compute Stats, Diag. #    219  SIhsnow   vol(   0 ): 3.580E+14  Parms: SM      M1      
 Compute Stats, Diag. #     83  sIceLoad  vol(   0 ): 3.580E+14  Parms: SM      U1      
 Compute Stats, Diag. #    223  SIuice    vol(   0 ): 3.513E+14  Parms: UU      M1      
 Compute Stats, Diag. #    224  SIvice    vol(   0 ): 3.508E+14  Parms: VV      M1      
 Compute Stats, Diag. #    225  SItaux    vol(   0 ): 3.513E+14  Parms: UU      U1      
 Compute Stats, Diag. #    226  SItauy    vol(   0 ): 3.508E+14  Parms: VV      U1      
 cg2d: Sum(rhs),rhsMax =   2.26907938643510E+01  2.92058729304435E-01
 Compute Stats, Diag. #    214  SIarea    vol(   0 ): 3.580E+14  Parms: SM      M1      
 Compute Stats, Diag. #    217  SIheff    vol(   0 ): 3.580E+14  Parms: SM      M1      
 Compute Stats, Diag. #    219  SIhsnow   vol(   0 ): 3.580E+14  Parms: SM      M1      
 Compute Stats, Diag. #     83  sIceLoad  vol(   0 ): 3.580E+14  Parms: SM      U1      
 Compute Stats, Diag. #    223  SIuice    vol(   0 ): 3.513E+14  Parms: UU      M1      
 Compute Stats, Diag. #    224  SIvice    vol(   0 ): 3.508E+14  Parms: VV      M1      
 Compute Stats, Diag. #    225  SItaux    vol(   0 ): 3.513E+14  Parms: UU      U1      
 Compute Stats, Diag. #    226  SItauy    vol(   0 ): 3.508E+14  Parms: VV      U1      
 cg2d: Sum(rhs),rhsMax =   2.26182901276665E+01  2.92041874855920E-01
 Compute Stats, Diag. #    214  SIarea    vol(   0 ): 3.580E+14  Parms: SM      M1      
 Compute Stats, Diag. #    217  SIheff    vol(   0 ): 3.580E+14  Parms: SM      M1      
 Compute Stats, Diag. #    219  SIhsnow   vol(   0 ): 3.580E+14  Parms: SM      M1      
 Compute Stats, Diag. #     83  sIceLoad  vol(   0 ): 3.580E+14  Parms: SM      U1      
 Compute Stats, Diag. #    223  SIuice    vol(   0 ): 3.513E+14  Parms: UU      M1      
 Compute Stats, Diag. #    224  SIvice    vol(   0 ): 3.508E+14  Parms: VV      M1      
 Compute Stats, Diag. #    225  SItaux    vol(   0 ): 3.513E+14  Parms: UU      U1      
 Compute Stats, Diag. #    226  SItauy    vol(   0 ): 3.508E+14  Parms: VV      U1      
 cg2d: Sum(rhs),rhsMax =   2.25389681293201E+01  2.92021497235321E-01
 Computing Diagnostic #     86  oceQnet      Counter:       4   Parms: SM      U1      
 Computing Diagnostic #     87  oceQsw       Counter:       4   Parms: SM      U1      
 Computing Diagnostic #     84  oceFWflx     Counter:       4   Parms: SM      U1      
 Computing Diagnostic #     85  oceSflux     Counter:       4   Parms: SM      U1      
 Computing Diagnostic #     80  oceTAUX      Counter:       4   Parms: UU      U1      
           Vector  Mate for  oceTAUX      Diagnostic #     81  oceTAUY  exists 
 Computing Diagnostic #     81  oceTAUY      Counter:       4   Parms: VV      U1      
           Vector  Mate for  oceTAUY      Diagnostic #     80  oceTAUX  exists 
 Computing Diagnostic #     26  THETA        Counter:       4   Parms: SMR     MR      
 Computing Diagnostic #     27  SALT         Counter:       4   Parms: SMR     MR      
 Computing Diagnostic #     30  UVEL         Counter:       4   Parms: UUR     MR      
           Vector  Mate for  UVEL         Diagnostic #     31  VVEL     exists 
 Computing Diagnostic #     31  VVEL         Counter:       4   Parms: VVR     MR      
           Vector  Mate for  VVEL         Diagnostic #     30  UVEL     exists 
 Computing Diagnostic #    214  SIarea       Counter:       4   Parms: SM      M1      
 Computing Diagnostic #    217  SIheff       Counter:       4   Parms: SM      M1      
 Computing Diagnostic #    219  SIhsnow      Counter:       4   Parms: SM      M1      
 Computing Diagnostic #     83  sIceLoad     Counter:       4   Parms: SM      U1      
 Computing Diagnostic #    223  SIuice       Counter:       4   Parms: UU      M1      
           Vector  Mate for  SIuice       Diagnostic #    224  SIvice   exists 
 Computing Diagnostic #    224  SIvice       Counter:       4   Parms: VV      M1      
           Vector  Mate for  SIvice       Diagnostic #    223  SIuice   exists 
 Computing Diagnostic #    225  SItaux       Counter:       4   Parms: UU      U1      
           Vector  Mate for  SItaux       Diagnostic #    226  SItauy   exists 
 Computing Diagnostic #    226  SItauy       Counter:       4   Parms: VV      U1      
           Vector  Mate for  SItauy       Diagnostic #    225  SItaux   exists 
 Computing Diagnostic #    285  SIareaN      Counter:       4   Parms: SM      MX      
 Computing Diagnostic #    284  SIheffN      Counter:       4   Parms: SM      MX      
 Computing Diagnostic #    286  SIhsnowN     Counter:       4   Parms: SM      MX      
 Compute Stats, Diag. #    214  SIarea    vol(   0 ): 3.580E+14  Parms: SM      M1      
 Compute Stats, Diag. #    217  SIheff    vol(   0 ): 3.580E+14  Parms: SM      M1      
 Compute Stats, Diag. #    219  SIhsnow   vol(   0 ): 3.580E+14  Parms: SM      M1      
 Compute Stats, Diag. #     83  sIceLoad  vol(   0 ): 3.580E+14  Parms: SM      U1      
 Compute Stats, Diag. #    223  SIuice    vol(   0 ): 3.513E+14  Parms: UU      M1      
 Compute Stats, Diag. #    224  SIvice    vol(   0 ): 3.508E+14  Parms: VV      M1      
 Compute Stats, Diag. #    225  SItaux    vol(   0 ): 3.513E+14  Parms: UU      U1      
 Compute Stats, Diag. #    226  SItauy    vol(   0 ): 3.508E+14  Parms: VV      U1      
 cg2d: Sum(rhs),rhsMax =   2.24546688169817E+01  2.91997095117164E-01
 Compute Stats, Diag. #    214  SIarea    vol(   0 ): 3.580E+14  Parms: SM      M1      
 Compute Stats, Diag. #    217  SIheff    vol(   0 ): 3.580E+14  Parms: SM      M1      
 Compute Stats, Diag. #    219  SIhsnow   vol(   0 ): 3.580E+14  Parms: SM      M1      
 Compute Stats, Diag. #     83  sIceLoad  vol(   0 ): 3.580E+14  Parms: SM      U1      
 Compute Stats, Diag. #    223  SIuice    vol(   0 ): 3.513E+14  Parms: UU      M1      
 Compute Stats, Diag. #    224  SIvice    vol(   0 ): 3.508E+14  Parms: VV      M1      
 Compute Stats, Diag. #    225  SItaux    vol(   0 ): 3.513E+14  Parms: UU      U1      
 Compute Stats, Diag. #    226  SItauy    vol(   0 ): 3.508E+14  Parms: VV      U1      
 cg2d: Sum(rhs),rhsMax =   2.23754159575419E+01  2.91968235254716E-01
 Compute Stats, Diag. #    214  SIarea    vol(   0 ): 3.580E+14  Parms: SM      M1      
 Compute Stats, Diag. #    217  SIheff    vol(   0 ): 3.580E+14  Parms: SM      M1      
 Compute Stats, Diag. #    219  SIhsnow   vol(   0 ): 3.580E+14  Parms: SM      M1      
 Compute Stats, Diag. #     83  sIceLoad  vol(   0 ): 3.580E+14  Parms: SM      U1      
 Compute Stats, Diag. #    223  SIuice    vol(   0 ): 3.513E+14  Parms: UU      M1      
 Compute Stats, Diag. #    224  SIvice    vol(   0 ): 3.508E+14  Parms: VV      M1      
 Compute Stats, Diag. #    225  SItaux    vol(   0 ): 3.513E+14  Parms: UU      U1      
 Compute Stats, Diag. #    226  SItauy    vol(   0 ): 3.508E+14  Parms: VV      U1      
 cg2d: Sum(rhs),rhsMax =   2.23036183206155E+01  2.91934231480427E-01
 Compute Stats, Diag. #    214  SIarea    vol(   0 ): 3.580E+14  Parms: SM      M1      
 Compute Stats, Diag. #    217  SIheff    vol(   0 ): 3.580E+14  Parms: SM      M1      
 Compute Stats, Diag. #    219  SIhsnow   vol(   0 ): 3.580E+14  Parms: SM      M1      
 Compute Stats, Diag. #     83  sIceLoad  vol(   0 ): 3.580E+14  Parms: SM      U1      
 Compute Stats, Diag. #    223  SIuice    vol(   0 ): 3.513E+14  Parms: UU      M1      
 Compute Stats, Diag. #    224  SIvice    vol(   0 ): 3.508E+14  Parms: VV      M1      
 Compute Stats, Diag. #    225  SItaux    vol(   0 ): 3.513E+14  Parms: UU      U1      
 Compute Stats, Diag. #    226  SItauy    vol(   0 ): 3.508E+14  Parms: VV      U1      
 cg2d: Sum(rhs),rhsMax =   2.22199808701904E+01  2.91895381149560E-01
(PID.TID 0000.0001)      cg2d_init_res =   5.98698286240105E-02
(PID.TID 0000.0001)      cg2d_iters(min,last) =      -1      26
(PID.TID 0000.0001)      cg2d_last_res =   2.35630469730913E-05
(PID.TID 0000.0001) // =======================================================
(PID.TID 0000.0001) // Begin MONITOR dynamic field statistics
(PID.TID 0000.0001) // =======================================================
(PID.TID 0000.0001) %MON time_tsnumber                =                   472
(PID.TID 0000.0001) %MON time_secondsf                =   4.2480000000000E+05
(PID.TID 0000.0001) %MON dynstat_eta_max              =   1.0262997106348E+00
(PID.TID 0000.0001) %MON dynstat_eta_min              =  -1.8533495497196E+00
(PID.TID 0000.0001) %MON dynstat_eta_mean             =  -7.0288896083442E-04
(PID.TID 0000.0001) %MON dynstat_eta_sd               =   6.3151641905102E-01
(PID.TID 0000.0001) %MON dynstat_eta_del2             =   5.6796477777274E-05
(PID.TID 0000.0001) %MON dynstat_uvel_max             =   8.2392310407404E-01
(PID.TID 0000.0001) %MON dynstat_uvel_min             =  -5.8926826619970E-01
(PID.TID 0000.0001) %MON dynstat_uvel_mean            =   1.3537075332887E-03
(PID.TID 0000.0001) %MON dynstat_uvel_sd              =   1.8571669451988E-02
(PID.TID 0000.0001) %MON dynstat_uvel_del2            =   7.6273294697228E-06
(PID.TID 0000.0001) %MON dynstat_vvel_max             =   8.4181573283709E-01
(PID.TID 0000.0001) %MON dynstat_vvel_min             =  -8.4643865039318E-01
(PID.TID 0000.0001) %MON dynstat_vvel_mean            =   1.0521447249831E-03
(PID.TID 0000.0001) %MON dynstat_vvel_sd              =   2.0065807730725E-02
(PID.TID 0000.0001) %MON dynstat_vvel_del2            =   7.7429344941088E-06
(PID.TID 0000.0001) %MON dynstat_wvel_max             =   3.7743199844939E-04
(PID.TID 0000.0001) %MON dynstat_wvel_min             =  -9.1099573670651E-04
(PID.TID 0000.0001) %MON dynstat_wvel_mean            =   1.1577886073008E-08
(PID.TID 0000.0001) %MON dynstat_wvel_sd              =   1.8329249614882E-05
(PID.TID 0000.0001) %MON dynstat_wvel_del2            =   1.4605727955563E-08
(PID.TID 0000.0001) %MON dynstat_theta_max            =   3.2272939237972E+01
(PID.TID 0000.0001) %MON dynstat_theta_min            =  -2.0880242937811E+00
(PID.TID 0000.0001) %MON dynstat_theta_mean           =   3.5903493628634E+00
(PID.TID 0000.0001) %MON dynstat_theta_sd             =   4.4362619648143E+00
(PID.TID 0000.0001) %MON dynstat_theta_del2           =   9.4993366699045E-05
(PID.TID 0000.0001) %MON dynstat_salt_max             =   4.0711556275836E+01
(PID.TID 0000.0001) %MON dynstat_salt_min             =   1.0372831620778E+01
(PID.TID 0000.0001) %MON dynstat_salt_mean            =   3.4725577327952E+01
(PID.TID 0000.0001) %MON dynstat_salt_sd              =   3.7701713829571E-01
(PID.TID 0000.0001) %MON dynstat_salt_del2            =   3.5371121604262E-05
(PID.TID 0000.0001) %MON dynstat_sst_max              =   3.2272939237972E+01
(PID.TID 0000.0001) %MON dynstat_sst_min              =  -1.8081409198563E+00
(PID.TID 0000.0001) %MON dynstat_sst_mean             =   1.8479791659224E+01
(PID.TID 0000.0001) %MON dynstat_sst_sd               =   1.0197318127144E+01
(PID.TID 0000.0001) %MON dynstat_sst_del2             =   8.1691594557497E-04
(PID.TID 0000.0001) %MON dynstat_sss_max              =   3.9112641666872E+01
(PID.TID 0000.0001) %MON dynstat_sss_min              =   1.0372831620778E+01
(PID.TID 0000.0001) %MON dynstat_sss_mean             =   3.4700072907442E+01
(PID.TID 0000.0001) %MON dynstat_sss_sd               =   1.1582117486743E+00
(PID.TID 0000.0001) %MON dynstat_sss_del2             =   1.0782050109216E-03
(PID.TID 0000.0001) %MON forcing_qnet_max             =   1.4608374023438E+03
(PID.TID 0000.0001) %MON forcing_qnet_min             =  -6.7312281555577E+02
(PID.TID 0000.0001) %MON forcing_qnet_mean            =  -6.9174495717739E+00
(PID.TID 0000.0001) %MON forcing_qnet_sd              =   1.9070442224905E+02
(PID.TID 0000.0001) %MON forcing_qnet_del2            =   3.2369444012527E-01
(PID.TID 0000.0001) %MON forcing_qsw_max              =   0.0000000000000E+00
(PID.TID 0000.0001) %MON forcing_qsw_min              =  -1.0810898648031E+02
(PID.TID 0000.0001) %MON forcing_qsw_mean             =  -1.9880808732523E+01
(PID.TID 0000.0001) %MON forcing_qsw_sd               =   2.9293690989112E+01
(PID.TID 0000.0001) %MON forcing_qsw_del2             =   2.0787655448661E-02
(PID.TID 0000.0001) %MON forcing_empmr_max            =   1.2915038969368E-03
(PID.TID 0000.0001) %MON forcing_empmr_min            =  -7.8608758747578E-02
(PID.TID 0000.0001) %MON forcing_empmr_mean           =  -3.0249394976428E-06
(PID.TID 0000.0001) %MON forcing_empmr_sd             =   3.2705223804362E-04
(PID.TID 0000.0001) %MON forcing_empmr_del2           =   3.4520873076189E-06
(PID.TID 0000.0001) %MON forcing_fu_max               =   8.4887647628784E-01
(PID.TID 0000.0001) %MON forcing_fu_min               =  -6.8154593865517E-01
(PID.TID 0000.0001) %MON forcing_fu_mean              =   8.4893609648018E-03
(PID.TID 0000.0001) %MON forcing_fu_sd                =   1.0121732407400E-01
(PID.TID 0000.0001) %MON forcing_fu_del2              =   1.2783927036782E-04
(PID.TID 0000.0001) %MON forcing_fv_max               =   7.9940733313561E-01
(PID.TID 0000.0001) %MON forcing_fv_min               =  -6.2294461398691E-01
(PID.TID 0000.0001) %MON forcing_fv_mean              =  -5.6120146467535E-03
(PID.TID 0000.0001) %MON forcing_fv_sd                =   9.4662539432351E-02
(PID.TID 0000.0001) %MON forcing_fv_del2              =   1.1011150117317E-04
(PID.TID 0000.0001) %MON trAdv_CFL_u_max              =   1.0412870188450E-02
(PID.TID 0000.0001) %MON trAdv_CFL_v_max              =   1.4747021224872E-02
(PID.TID 0000.0001) %MON trAdv_CFL_w_max              =   2.1027284672498E-02
(PID.TID 0000.0001) %MON advcfl_uvel_max              =   9.1125042164606E-03
(PID.TID 0000.0001) %MON advcfl_vvel_max              =   1.4942990402192E-02
(PID.TID 0000.0001) %MON advcfl_wvel_max              =   1.8844532145520E-02
(PID.TID 0000.0001) %MON advcfl_W_hf_max              =   1.9743923266573E-02
(PID.TID 0000.0001) %MON pe_b_mean                    =   5.2459988516730E-04
(PID.TID 0000.0001) %MON ke_max                       =   3.6614486398526E-01
(PID.TID 0000.0001) %MON ke_mean                      =   3.6188029253065E-04
(PID.TID 0000.0001) %MON ke_vol                       =   1.3349976243481E+18
(PID.TID 0000.0001) %MON vort_r_min                   =  -1.6042676643334E-05
(PID.TID 0000.0001) %MON vort_r_max                   =   2.3769634102863E-05
(PID.TID 0000.0001) %MON vort_a_mean                  =  -1.9727864647440E-05
(PID.TID 0000.0001) %MON vort_a_sd                    =   7.4542939715846E-05
(PID.TID 0000.0001) %MON vort_p_mean                  =  -2.1760536522952E-05
(PID.TID 0000.0001) %MON vort_p_sd                    =   9.7246673127891E-05
(PID.TID 0000.0001) %MON surfExpan_theta_mean         =  -2.0237196980904E-08
(PID.TID 0000.0001) %MON surfExpan_salt_mean          =   2.0657557633636E-08
(PID.TID 0000.0001) // =======================================================
(PID.TID 0000.0001) // End MONITOR dynamic field statistics
(PID.TID 0000.0001) // =======================================================
(PID.TID 0000.0001) // =======================================================
(PID.TID 0000.0001) // Begin MONITOR SEAICE statistics
(PID.TID 0000.0001) // =======================================================
(PID.TID 0000.0001) %MON seaice_tsnumber              =                   472
(PID.TID 0000.0001) %MON seaice_time_sec              =   4.2480000000000E+05
(PID.TID 0000.0001) %MON seaice_uice_max              =   4.0000000000000E-01
(PID.TID 0000.0001) %MON seaice_uice_min              =  -4.0000000000000E-01
(PID.TID 0000.0001) %MON seaice_uice_mean             =  -8.3054598624025E-03
(PID.TID 0000.0001) %MON seaice_uice_sd               =   1.9802383574176E-01
(PID.TID 0000.0001) %MON seaice_uice_del2             =   2.2931571122150E-04
(PID.TID 0000.0001) %MON seaice_vice_max              =   4.0000000000000E-01
(PID.TID 0000.0001) %MON seaice_vice_min              =  -4.0000000000000E-01
(PID.TID 0000.0001) %MON seaice_vice_mean             =  -2.1960776359499E-02
(PID.TID 0000.0001) %MON seaice_vice_sd               =   2.1302038025672E-01
(PID.TID 0000.0001) %MON seaice_vice_del2             =   2.3932563818061E-04
(PID.TID 0000.0001) %MON seaice_area_max              =   1.0000000000000E+00
(PID.TID 0000.0001) %MON seaice_area_min              =   0.0000000000000E+00
(PID.TID 0000.0001) %MON seaice_area_mean             =   6.7110389723737E-02
(PID.TID 0000.0001) %MON seaice_area_sd               =   2.3205547878315E-01
(PID.TID 0000.0001) %MON seaice_area_del2             =   4.1222454098177E-04
(PID.TID 0000.0001) %MON seaice_heff_max              =   2.5085104009137E+01
(PID.TID 0000.0001) %MON seaice_heff_min              =   0.0000000000000E+00
(PID.TID 0000.0001) %MON seaice_heff_mean             =   2.1395301010647E-01
(PID.TID 0000.0001) %MON seaice_heff_sd               =   1.0679019578226E+00
(PID.TID 0000.0001) %MON seaice_heff_del2             =   3.8684554590071E-03
(PID.TID 0000.0001) %MON seaice_hsnow_max             =   8.2853817693540E+00
(PID.TID 0000.0001) %MON seaice_hsnow_min             =   0.0000000000000E+00
(PID.TID 0000.0001) %MON seaice_hsnow_mean            =   2.4219662554861E-02
(PID.TID 0000.0001) %MON seaice_hsnow_sd              =   1.5662460570132E-01
(PID.TID 0000.0001) %MON seaice_hsnow_del2            =   1.2443012437145E-03
(PID.TID 0000.0001) // =======================================================
(PID.TID 0000.0001) // End MONITOR SEAICE statistics
(PID.TID 0000.0001) // =======================================================
 Computing Diagnostic #     86  oceQnet      Counter:       4   Parms: SM      U1      
 Computing Diagnostic #     87  oceQsw       Counter:       4   Parms: SM      U1      
 Computing Diagnostic #     84  oceFWflx     Counter:       4   Parms: SM      U1      
 Computing Diagnostic #     85  oceSflux     Counter:       4   Parms: SM      U1      
 Computing Diagnostic #     80  oceTAUX      Counter:       4   Parms: UU      U1      
           Vector  Mate for  oceTAUX      Diagnostic #     81  oceTAUY  exists 
 Computing Diagnostic #     81  oceTAUY      Counter:       4   Parms: VV      U1      
           Vector  Mate for  oceTAUY      Diagnostic #     80  oceTAUX  exists 
 Computing Diagnostic #     26  THETA        Counter:       4   Parms: SMR     MR      
 Computing Diagnostic #     27  SALT         Counter:       4   Parms: SMR     MR      
 Computing Diagnostic #     30  UVEL         Counter:       4   Parms: UUR     MR      
           Vector  Mate for  UVEL         Diagnostic #     31  VVEL     exists 
 Computing Diagnostic #     31  VVEL         Counter:       4   Parms: VVR     MR      
           Vector  Mate for  VVEL         Diagnostic #     30  UVEL     exists 
 Computing Diagnostic #    214  SIarea       Counter:       4   Parms: SM      M1      
 Computing Diagnostic #    217  SIheff       Counter:       4   Parms: SM      M1      
 Computing Diagnostic #    219  SIhsnow      Counter:       4   Parms: SM      M1      
 Computing Diagnostic #     83  sIceLoad     Counter:       4   Parms: SM      U1      
 Computing Diagnostic #    223  SIuice       Counter:       4   Parms: UU      M1      
           Vector  Mate for  SIuice       Diagnostic #    224  SIvice   exists 
 Computing Diagnostic #    224  SIvice       Counter:       4   Parms: VV      M1      
           Vector  Mate for  SIvice       Diagnostic #    223  SIuice   exists 
 Computing Diagnostic #    225  SItaux       Counter:       4   Parms: UU      U1      
           Vector  Mate for  SItaux       Diagnostic #    226  SItauy   exists 
 Computing Diagnostic #    226  SItauy       Counter:       4   Parms: VV      U1      
           Vector  Mate for  SItauy       Diagnostic #    225  SItaux   exists 
 Computing Diagnostic #    285  SIareaN      Counter:       4   Parms: SM      MX      
 Computing Diagnostic #    284  SIheffN      Counter:       4   Parms: SM      MX      
 Computing Diagnostic #    286  SIhsnowN     Counter:       4   Parms: SM      MX      
 Compute Stats, Diag. #    214  SIarea    vol(   0 ): 3.580E+14  Parms: SM      M1      
 Compute Stats, Diag. #    217  SIheff    vol(   0 ): 3.580E+14  Parms: SM      M1      
 Compute Stats, Diag. #    219  SIhsnow   vol(   0 ): 3.580E+14  Parms: SM      M1      
 Compute Stats, Diag. #     83  sIceLoad  vol(   0 ): 3.580E+14  Parms: SM      U1      
 Compute Stats, Diag. #    223  SIuice    vol(   0 ): 3.513E+14  Parms: UU      M1      
 Compute Stats, Diag. #    224  SIvice    vol(   0 ): 3.508E+14  Parms: VV      M1      
 Compute Stats, Diag. #    225  SItaux    vol(   0 ): 3.513E+14  Parms: UU      U1      
 Compute Stats, Diag. #    226  SItauy    vol(   0 ): 3.508E+14  Parms: VV      U1      
 cg2d: Sum(rhs),rhsMax =   2.21316802250396E+01  2.91850914017824E-01
 Compute Stats, Diag. #    214  SIarea    vol(   0 ): 3.580E+14  Parms: SM      M1      
 Compute Stats, Diag. #    217  SIheff    vol(   0 ): 3.580E+14  Parms: SM      M1      
 Compute Stats, Diag. #    219  SIhsnow   vol(   0 ): 3.580E+14  Parms: SM      M1      
 Compute Stats, Diag. #     83  sIceLoad  vol(   0 ): 3.580E+14  Parms: SM      U1      
 Compute Stats, Diag. #    223  SIuice    vol(   0 ): 3.513E+14  Parms: UU      M1      
 Compute Stats, Diag. #    224  SIvice    vol(   0 ): 3.508E+14  Parms: VV      M1      
 Compute Stats, Diag. #    225  SItaux    vol(   0 ): 3.513E+14  Parms: UU      U1      
 Compute Stats, Diag. #    226  SItauy    vol(   0 ): 3.508E+14  Parms: VV      U1      
 cg2d: Sum(rhs),rhsMax =   2.20541497817644E+01  2.91800546972138E-01
 Compute Stats, Diag. #    214  SIarea    vol(   0 ): 3.580E+14  Parms: SM      M1      
 Compute Stats, Diag. #    217  SIheff    vol(   0 ): 3.580E+14  Parms: SM      M1      
 Compute Stats, Diag. #    219  SIhsnow   vol(   0 ): 3.580E+14  Parms: SM      M1      
 Compute Stats, Diag. #     83  sIceLoad  vol(   0 ): 3.580E+14  Parms: SM      U1      
 Compute Stats, Diag. #    223  SIuice    vol(   0 ): 3.513E+14  Parms: UU      M1      
 Compute Stats, Diag. #    224  SIvice    vol(   0 ): 3.508E+14  Parms: VV      M1      
 Compute Stats, Diag. #    225  SItaux    vol(   0 ): 3.513E+14  Parms: UU      U1      
 Compute Stats, Diag. #    226  SItauy    vol(   0 ): 3.508E+14  Parms: VV      U1      
 cg2d: Sum(rhs),rhsMax =   2.19843811559638E+01  2.91744205710632E-01
 Compute Stats, Diag. #    214  SIarea    vol(   0 ): 3.580E+14  Parms: SM      M1      
 Compute Stats, Diag. #    217  SIheff    vol(   0 ): 3.580E+14  Parms: SM      M1      
 Compute Stats, Diag. #    219  SIhsnow   vol(   0 ): 3.580E+14  Parms: SM      M1      
 Compute Stats, Diag. #     83  sIceLoad  vol(   0 ): 3.580E+14  Parms: SM      U1      
 Compute Stats, Diag. #    223  SIuice    vol(   0 ): 3.513E+14  Parms: UU      M1      
 Compute Stats, Diag. #    224  SIvice    vol(   0 ): 3.508E+14  Parms: VV      M1      
 Compute Stats, Diag. #    225  SItaux    vol(   0 ): 3.513E+14  Parms: UU      U1      
 Compute Stats, Diag. #    226  SItauy    vol(   0 ): 3.508E+14  Parms: VV      U1      
 cg2d: Sum(rhs),rhsMax =   2.18978199060650E+01  2.91682133106235E-01
 Computing Diagnostic #     86  oceQnet      Counter:       4   Parms: SM      U1      
 Computing Diagnostic #     87  oceQsw       Counter:       4   Parms: SM      U1      
 Computing Diagnostic #     84  oceFWflx     Counter:       4   Parms: SM      U1      
 Computing Diagnostic #     85  oceSflux     Counter:       4   Parms: SM      U1      
 Computing Diagnostic #     80  oceTAUX      Counter:       4   Parms: UU      U1      
           Vector  Mate for  oceTAUX      Diagnostic #     81  oceTAUY  exists 
 Computing Diagnostic #     81  oceTAUY      Counter:       4   Parms: VV      U1      
           Vector  Mate for  oceTAUY      Diagnostic #     80  oceTAUX  exists 
 Computing Diagnostic #     26  THETA        Counter:       4   Parms: SMR     MR      
 Computing Diagnostic #     27  SALT         Counter:       4   Parms: SMR     MR      
 Computing Diagnostic #     30  UVEL         Counter:       4   Parms: UUR     MR      
           Vector  Mate for  UVEL         Diagnostic #     31  VVEL     exists 
 Computing Diagnostic #     31  VVEL         Counter:       4   Parms: VVR     MR      
           Vector  Mate for  VVEL         Diagnostic #     30  UVEL     exists 
 Computing Diagnostic #    214  SIarea       Counter:       4   Parms: SM      M1      
 Computing Diagnostic #    217  SIheff       Counter:       4   Parms: SM      M1      
 Computing Diagnostic #    219  SIhsnow      Counter:       4   Parms: SM      M1      
 Computing Diagnostic #     83  sIceLoad     Counter:       4   Parms: SM      U1      
 Computing Diagnostic #    223  SIuice       Counter:       4   Parms: UU      M1      
           Vector  Mate for  SIuice       Diagnostic #    224  SIvice   exists 
 Computing Diagnostic #    224  SIvice       Counter:       4   Parms: VV      M1      
           Vector  Mate for  SIvice       Diagnostic #    223  SIuice   exists 
 Computing Diagnostic #    225  SItaux       Counter:       4   Parms: UU      U1      
           Vector  Mate for  SItaux       Diagnostic #    226  SItauy   exists 
 Computing Diagnostic #    226  SItauy       Counter:       4   Parms: VV      U1      
           Vector  Mate for  SItauy       Diagnostic #    225  SItaux   exists 
 Computing Diagnostic #    285  SIareaN      Counter:       4   Parms: SM      MX      
 Computing Diagnostic #    284  SIheffN      Counter:       4   Parms: SM      MX      
 Computing Diagnostic #    286  SIhsnowN     Counter:       4   Parms: SM      MX      
 Compute Stats, Diag. #    214  SIarea    vol(   0 ): 3.580E+14  Parms: SM      M1      
 Compute Stats, Diag. #    217  SIheff    vol(   0 ): 3.580E+14  Parms: SM      M1      
 Compute Stats, Diag. #    219  SIhsnow   vol(   0 ): 3.580E+14  Parms: SM      M1      
 Compute Stats, Diag. #     83  sIceLoad  vol(   0 ): 3.580E+14  Parms: SM      U1      
 Compute Stats, Diag. #    223  SIuice    vol(   0 ): 3.513E+14  Parms: UU      M1      
 Compute Stats, Diag. #    224  SIvice    vol(   0 ): 3.508E+14  Parms: VV      M1      
 Compute Stats, Diag. #    225  SItaux    vol(   0 ): 3.513E+14  Parms: UU      U1      
 Compute Stats, Diag. #    226  SItauy    vol(   0 ): 3.508E+14  Parms: VV      U1      
 cg2d: Sum(rhs),rhsMax =   2.18176783320027E+01  2.91614007824640E-01
 Compute Stats, Diag. #    214  SIarea    vol(   0 ): 3.580E+14  Parms: SM      M1      
 Compute Stats, Diag. #    217  SIheff    vol(   0 ): 3.580E+14  Parms: SM      M1      
 Compute Stats, Diag. #    219  SIhsnow   vol(   0 ): 3.580E+14  Parms: SM      M1      
 Compute Stats, Diag. #     83  sIceLoad  vol(   0 ): 3.580E+14  Parms: SM      U1      
 Compute Stats, Diag. #    223  SIuice    vol(   0 ): 3.513E+14  Parms: UU      M1      
 Compute Stats, Diag. #    224  SIvice    vol(   0 ): 3.508E+14  Parms: VV      M1      
 Compute Stats, Diag. #    225  SItaux    vol(   0 ): 3.513E+14  Parms: UU      U1      
 Compute Stats, Diag. #    226  SItauy    vol(   0 ): 3.508E+14  Parms: VV      U1      
 cg2d: Sum(rhs),rhsMax =   2.17374593049734E+01  2.91541005263877E-01
 Compute Stats, Diag. #    214  SIarea    vol(   0 ): 3.580E+14  Parms: SM      M1      
 Compute Stats, Diag. #    217  SIheff    vol(   0 ): 3.580E+14  Parms: SM      M1      
 Compute Stats, Diag. #    219  SIhsnow   vol(   0 ): 3.580E+14  Parms: SM      M1      
 Compute Stats, Diag. #     83  sIceLoad  vol(   0 ): 3.580E+14  Parms: SM      U1      
 Compute Stats, Diag. #    223  SIuice    vol(   0 ): 3.513E+14  Parms: UU      M1      
 Compute Stats, Diag. #    224  SIvice    vol(   0 ): 3.508E+14  Parms: VV      M1      
 Compute Stats, Diag. #    225  SItaux    vol(   0 ): 3.513E+14  Parms: UU      U1      
 Compute Stats, Diag. #    226  SItauy    vol(   0 ): 3.508E+14  Parms: VV      U1      
 cg2d: Sum(rhs),rhsMax =   2.16617557709936E+01  2.91461579736179E-01
 Compute Stats, Diag. #    214  SIarea    vol(   0 ): 3.580E+14  Parms: SM      M1      
 Compute Stats, Diag. #    217  SIheff    vol(   0 ): 3.580E+14  Parms: SM      M1      
 Compute Stats, Diag. #    219  SIhsnow   vol(   0 ): 3.580E+14  Parms: SM      M1      
 Compute Stats, Diag. #     83  sIceLoad  vol(   0 ): 3.580E+14  Parms: SM      U1      
 Compute Stats, Diag. #    223  SIuice    vol(   0 ): 3.513E+14  Parms: UU      M1      
 Compute Stats, Diag. #    224  SIvice    vol(   0 ): 3.508E+14  Parms: VV      M1      
 Compute Stats, Diag. #    225  SItaux    vol(   0 ): 3.513E+14  Parms: UU      U1      
 Compute Stats, Diag. #    226  SItauy    vol(   0 ): 3.508E+14  Parms: VV      U1      
 cg2d: Sum(rhs),rhsMax =   2.15962400711154E+01  2.91375372746402E-01
(PID.TID 0000.0001)      cg2d_init_res =   6.08279372464679E-02
(PID.TID 0000.0001)      cg2d_iters(min,last) =      -1      26
(PID.TID 0000.0001)      cg2d_last_res =   2.53119248199452E-05
(PID.TID 0000.0001) // =======================================================
(PID.TID 0000.0001) // Begin MONITOR dynamic field statistics
(PID.TID 0000.0001) // =======================================================
(PID.TID 0000.0001) %MON time_tsnumber                =                   480
(PID.TID 0000.0001) %MON time_secondsf                =   4.3200000000000E+05
(PID.TID 0000.0001) %MON dynstat_eta_max              =   1.0263576935243E+00
(PID.TID 0000.0001) %MON dynstat_eta_min              =  -1.8489507322722E+00
(PID.TID 0000.0001) %MON dynstat_eta_mean             =  -6.8315804726372E-04
(PID.TID 0000.0001) %MON dynstat_eta_sd               =   6.3094276312654E-01
(PID.TID 0000.0001) %MON dynstat_eta_del2             =   5.6541546102705E-05
(PID.TID 0000.0001) %MON dynstat_uvel_max             =   8.1773831652946E-01
(PID.TID 0000.0001) %MON dynstat_uvel_min             =  -5.8211698710248E-01
(PID.TID 0000.0001) %MON dynstat_uvel_mean            =   1.3391051390559E-03
(PID.TID 0000.0001) %MON dynstat_uvel_sd              =   1.8537356993395E-02
(PID.TID 0000.0001) %MON dynstat_uvel_del2            =   7.6088756545857E-06
(PID.TID 0000.0001) %MON dynstat_vvel_max             =   8.4668038469782E-01
(PID.TID 0000.0001) %MON dynstat_vvel_min             =  -8.4564643486188E-01
(PID.TID 0000.0001) %MON dynstat_vvel_mean            =   1.0395539469160E-03
(PID.TID 0000.0001) %MON dynstat_vvel_sd              =   2.0048615669597E-02
(PID.TID 0000.0001) %MON dynstat_vvel_del2            =   7.7305035189989E-06
(PID.TID 0000.0001) %MON dynstat_wvel_max             =   3.6751392300483E-04
(PID.TID 0000.0001) %MON dynstat_wvel_min             =  -9.1430184607359E-04
(PID.TID 0000.0001) %MON dynstat_wvel_mean            =   1.1042903438391E-08
(PID.TID 0000.0001) %MON dynstat_wvel_sd              =   1.8344999655084E-05
(PID.TID 0000.0001) %MON dynstat_wvel_del2            =   1.4558484708185E-08
(PID.TID 0000.0001) %MON dynstat_theta_max            =   3.2257355492443E+01
(PID.TID 0000.0001) %MON dynstat_theta_min            =  -2.0876646922233E+00
(PID.TID 0000.0001) %MON dynstat_theta_mean           =   3.5903548474945E+00
(PID.TID 0000.0001) %MON dynstat_theta_sd             =   4.4363034394589E+00
(PID.TID 0000.0001) %MON dynstat_theta_del2           =   9.4867354883728E-05
(PID.TID 0000.0001) %MON dynstat_salt_max             =   4.0711556177243E+01
(PID.TID 0000.0001) %MON dynstat_salt_min             =   9.9609800161838E+00
(PID.TID 0000.0001) %MON dynstat_salt_mean            =   3.4725577182487E+01
(PID.TID 0000.0001) %MON dynstat_salt_sd              =   3.7701885126168E-01
(PID.TID 0000.0001) %MON dynstat_salt_del2            =   3.5246734230582E-05
(PID.TID 0000.0001) %MON dynstat_sst_max              =   3.2257355492443E+01
(PID.TID 0000.0001) %MON dynstat_sst_min              =  -1.8098232660701E+00
(PID.TID 0000.0001) %MON dynstat_sst_mean             =   1.8481993872525E+01
(PID.TID 0000.0001) %MON dynstat_sst_sd               =   1.0199277793197E+01
(PID.TID 0000.0001) %MON dynstat_sst_del2             =   8.1685222270221E-04
(PID.TID 0000.0001) %MON dynstat_sss_max              =   3.9112194391865E+01
(PID.TID 0000.0001) %MON dynstat_sss_min              =   9.9609800161838E+00
(PID.TID 0000.0001) %MON dynstat_sss_mean             =   3.4700069709657E+01
(PID.TID 0000.0001) %MON dynstat_sss_sd               =   1.1586786788850E+00
(PID.TID 0000.0001) %MON dynstat_sss_del2             =   1.0743895681461E-03
(PID.TID 0000.0001) %MON forcing_qnet_max             =   1.2181258544922E+03
(PID.TID 0000.0001) %MON forcing_qnet_min             =  -8.0198370361328E+02
(PID.TID 0000.0001) %MON forcing_qnet_mean            =  -1.7876879212186E+01
(PID.TID 0000.0001) %MON forcing_qnet_sd              =   2.0174748236222E+02
(PID.TID 0000.0001) %MON forcing_qnet_del2            =   3.0787399831328E-01
(PID.TID 0000.0001) %MON forcing_qsw_max              =   0.0000000000000E+00
(PID.TID 0000.0001) %MON forcing_qsw_min              =  -1.1160843123884E+02
(PID.TID 0000.0001) %MON forcing_qsw_mean             =  -2.1746343793309E+01
(PID.TID 0000.0001) %MON forcing_qsw_sd               =   3.0606859009811E+01
(PID.TID 0000.0001) %MON forcing_qsw_del2             =   2.0072925201285E-02
(PID.TID 0000.0001) %MON forcing_empmr_max            =   1.1629651999101E-03
(PID.TID 0000.0001) %MON forcing_empmr_min            =  -7.4099011719227E-02
(PID.TID 0000.0001) %MON forcing_empmr_mean           =  -2.3695249826585E-06
(PID.TID 0000.0001) %MON forcing_empmr_sd             =   3.1271329217827E-04
(PID.TID 0000.0001) %MON forcing_empmr_del2           =   3.2704037155626E-06
(PID.TID 0000.0001) %MON forcing_fu_max               =   8.4928277134895E-01
(PID.TID 0000.0001) %MON forcing_fu_min               =  -7.0010397163132E-01
(PID.TID 0000.0001) %MON forcing_fu_mean              =   8.1881498909005E-03
(PID.TID 0000.0001) %MON forcing_fu_sd                =   1.0184691642904E-01
(PID.TID 0000.0001) %MON forcing_fu_del2              =   1.2839663923868E-04
(PID.TID 0000.0001) %MON forcing_fv_max               =   8.0796080827713E-01
(PID.TID 0000.0001) %MON forcing_fv_min               =  -6.1552509819223E-01
(PID.TID 0000.0001) %MON forcing_fv_mean              =  -6.0014053709866E-03
(PID.TID 0000.0001) %MON forcing_fv_sd                =   9.4721620184987E-02
(PID.TID 0000.0001) %MON forcing_fv_del2              =   1.1083223788715E-04
(PID.TID 0000.0001) %MON trAdv_CFL_u_max              =   1.0400700999895E-02
(PID.TID 0000.0001) %MON trAdv_CFL_v_max              =   1.4806883845799E-02
(PID.TID 0000.0001) %MON trAdv_CFL_w_max              =   2.0937573166655E-02
(PID.TID 0000.0001) %MON advcfl_uvel_max              =   9.0791433215566E-03
(PID.TID 0000.0001) %MON advcfl_vvel_max              =   1.5029342371191E-02
(PID.TID 0000.0001) %MON advcfl_wvel_max              =   1.8545105532060E-02
(PID.TID 0000.0001) %MON advcfl_W_hf_max              =   1.9439081881805E-02
(PID.TID 0000.0001) %MON pe_b_mean                    =   5.2364720990491E-04
(PID.TID 0000.0001) %MON ke_max                       =   3.6776200539263E-01
(PID.TID 0000.0001) %MON ke_mean                      =   3.6090214412984E-04
(PID.TID 0000.0001) %MON ke_vol                       =   1.3349976316173E+18
(PID.TID 0000.0001) %MON vort_r_min                   =  -1.6150697954514E-05
(PID.TID 0000.0001) %MON vort_r_max                   =   2.3916347191561E-05
(PID.TID 0000.0001) %MON vort_a_mean                  =  -1.9727864647440E-05
(PID.TID 0000.0001) %MON vort_a_sd                    =   7.4542934026079E-05
(PID.TID 0000.0001) %MON vort_p_mean                  =  -2.1760536507505E-05
(PID.TID 0000.0001) %MON vort_p_sd                    =   9.7246659908677E-05
(PID.TID 0000.0001) %MON surfExpan_theta_mean         =   3.4927274556846E-08
(PID.TID 0000.0001) %MON surfExpan_salt_mean          =   3.2365490277721E-08
(PID.TID 0000.0001) // =======================================================
(PID.TID 0000.0001) // End MONITOR dynamic field statistics
(PID.TID 0000.0001) // =======================================================
(PID.TID 0000.0001) // =======================================================
(PID.TID 0000.0001) // Begin MONITOR SEAICE statistics
(PID.TID 0000.0001) // =======================================================
(PID.TID 0000.0001) %MON seaice_tsnumber              =                   480
(PID.TID 0000.0001) %MON seaice_time_sec              =   4.3200000000000E+05
(PID.TID 0000.0001) %MON seaice_uice_max              =   4.0000000000000E-01
(PID.TID 0000.0001) %MON seaice_uice_min              =  -4.0000000000000E-01
(PID.TID 0000.0001) %MON seaice_uice_mean             =  -8.3054598624025E-03
(PID.TID 0000.0001) %MON seaice_uice_sd               =   1.9802383574176E-01
(PID.TID 0000.0001) %MON seaice_uice_del2             =   2.2931571122150E-04
(PID.TID 0000.0001) %MON seaice_vice_max              =   4.0000000000000E-01
(PID.TID 0000.0001) %MON seaice_vice_min              =  -4.0000000000000E-01
(PID.TID 0000.0001) %MON seaice_vice_mean             =  -2.1960776359499E-02
(PID.TID 0000.0001) %MON seaice_vice_sd               =   2.1302038025672E-01
(PID.TID 0000.0001) %MON seaice_vice_del2             =   2.3932563818061E-04
(PID.TID 0000.0001) %MON seaice_area_max              =   1.0000000000000E+00
(PID.TID 0000.0001) %MON seaice_area_min              =   0.0000000000000E+00
(PID.TID 0000.0001) %MON seaice_area_mean             =   6.7071272177230E-02
(PID.TID 0000.0001) %MON seaice_area_sd               =   2.3198495224018E-01
(PID.TID 0000.0001) %MON seaice_area_del2             =   4.1165517452162E-04
(PID.TID 0000.0001) %MON seaice_heff_max              =   2.5082255993038E+01
(PID.TID 0000.0001) %MON seaice_heff_min              =   0.0000000000000E+00
(PID.TID 0000.0001) %MON seaice_heff_mean             =   2.1390880807394E-01
(PID.TID 0000.0001) %MON seaice_heff_sd               =   1.0678537524914E+00
(PID.TID 0000.0001) %MON seaice_heff_del2             =   3.8676633387521E-03
(PID.TID 0000.0001) %MON seaice_hsnow_max             =   8.2844487298280E+00
(PID.TID 0000.0001) %MON seaice_hsnow_min             =   0.0000000000000E+00
(PID.TID 0000.0001) %MON seaice_hsnow_mean            =   2.4213553810596E-02
(PID.TID 0000.0001) %MON seaice_hsnow_sd              =   1.5660835969723E-01
(PID.TID 0000.0001) %MON seaice_hsnow_del2            =   1.2441444502058E-03
(PID.TID 0000.0001) // =======================================================
(PID.TID 0000.0001) // End MONITOR SEAICE statistics
(PID.TID 0000.0001) // =======================================================
 Computing Diagnostic #     86  oceQnet      Counter:       4   Parms: SM      U1      
 Computing Diagnostic #     87  oceQsw       Counter:       4   Parms: SM      U1      
 Computing Diagnostic #     84  oceFWflx     Counter:       4   Parms: SM      U1      
 Computing Diagnostic #     85  oceSflux     Counter:       4   Parms: SM      U1      
 Computing Diagnostic #     80  oceTAUX      Counter:       4   Parms: UU      U1      
           Vector  Mate for  oceTAUX      Diagnostic #     81  oceTAUY  exists 
 Computing Diagnostic #     81  oceTAUY      Counter:       4   Parms: VV      U1      
           Vector  Mate for  oceTAUY      Diagnostic #     80  oceTAUX  exists 
 Computing Diagnostic #     26  THETA        Counter:       4   Parms: SMR     MR      
 Computing Diagnostic #     27  SALT         Counter:       4   Parms: SMR     MR      
 Computing Diagnostic #     30  UVEL         Counter:       4   Parms: UUR     MR      
           Vector  Mate for  UVEL         Diagnostic #     31  VVEL     exists 
 Computing Diagnostic #     31  VVEL         Counter:       4   Parms: VVR     MR      
           Vector  Mate for  VVEL         Diagnostic #     30  UVEL     exists 
 Computing Diagnostic #    214  SIarea       Counter:       4   Parms: SM      M1      
 Computing Diagnostic #    217  SIheff       Counter:       4   Parms: SM      M1      
 Computing Diagnostic #    219  SIhsnow      Counter:       4   Parms: SM      M1      
 Computing Diagnostic #     83  sIceLoad     Counter:       4   Parms: SM      U1      
 Computing Diagnostic #    223  SIuice       Counter:       4   Parms: UU      M1      
           Vector  Mate for  SIuice       Diagnostic #    224  SIvice   exists 
 Computing Diagnostic #    224  SIvice       Counter:       4   Parms: VV      M1      
           Vector  Mate for  SIvice       Diagnostic #    223  SIuice   exists 
 Computing Diagnostic #    225  SItaux       Counter:       4   Parms: UU      U1      
           Vector  Mate for  SItaux       Diagnostic #    226  SItauy   exists 
 Computing Diagnostic #    226  SItauy       Counter:       4   Parms: VV      U1      
           Vector  Mate for  SItauy       Diagnostic #    225  SItaux   exists 
 Computing Diagnostic #    285  SIareaN      Counter:       4   Parms: SM      MX      
 Computing Diagnostic #    284  SIheffN      Counter:       4   Parms: SM      MX      
 Computing Diagnostic #    286  SIhsnowN     Counter:       4   Parms: SM      MX      
 Compute Stats, Diag. #    214  SIarea    vol(   0 ): 3.580E+14  Parms: SM      M1      
 Compute Stats, Diag. #    217  SIheff    vol(   0 ): 3.580E+14  Parms: SM      M1      
 Compute Stats, Diag. #    219  SIhsnow   vol(   0 ): 3.580E+14  Parms: SM      M1      
 Compute Stats, Diag. #     83  sIceLoad  vol(   0 ): 3.580E+14  Parms: SM      U1      
 Compute Stats, Diag. #    223  SIuice    vol(   0 ): 3.513E+14  Parms: UU      M1      
 Compute Stats, Diag. #    224  SIvice    vol(   0 ): 3.508E+14  Parms: VV      M1      
 Compute Stats, Diag. #    225  SItaux    vol(   0 ): 3.513E+14  Parms: UU      U1      
 Compute Stats, Diag. #    226  SItauy    vol(   0 ): 3.508E+14  Parms: VV      U1      
 cg2d: Sum(rhs),rhsMax =   2.15169783306820E+01  2.91282964378821E-01
 Compute Stats, Diag. #    214  SIarea    vol(   0 ): 3.580E+14  Parms: SM      M1      
 Compute Stats, Diag. #    217  SIheff    vol(   0 ): 3.580E+14  Parms: SM      M1      
 Compute Stats, Diag. #    219  SIhsnow   vol(   0 ): 3.580E+14  Parms: SM      M1      
 Compute Stats, Diag. #     83  sIceLoad  vol(   0 ): 3.580E+14  Parms: SM      U1      
 Compute Stats, Diag. #    223  SIuice    vol(   0 ): 3.513E+14  Parms: UU      M1      
 Compute Stats, Diag. #    224  SIvice    vol(   0 ): 3.508E+14  Parms: VV      M1      
 Compute Stats, Diag. #    225  SItaux    vol(   0 ): 3.513E+14  Parms: UU      U1      
 Compute Stats, Diag. #    226  SItauy    vol(   0 ): 3.508E+14  Parms: VV      U1      
 cg2d: Sum(rhs),rhsMax =   2.14467054886404E+01  2.91184387400379E-01
 Compute Stats, Diag. #    214  SIarea    vol(   0 ): 3.580E+14  Parms: SM      M1      
 Compute Stats, Diag. #    217  SIheff    vol(   0 ): 3.580E+14  Parms: SM      M1      
 Compute Stats, Diag. #    219  SIhsnow   vol(   0 ): 3.580E+14  Parms: SM      M1      
 Compute Stats, Diag. #     83  sIceLoad  vol(   0 ): 3.580E+14  Parms: SM      U1      
 Compute Stats, Diag. #    223  SIuice    vol(   0 ): 3.513E+14  Parms: UU      M1      
 Compute Stats, Diag. #    224  SIvice    vol(   0 ): 3.508E+14  Parms: VV      M1      
 Compute Stats, Diag. #    225  SItaux    vol(   0 ): 3.513E+14  Parms: UU      U1      
 Compute Stats, Diag. #    226  SItauy    vol(   0 ): 3.508E+14  Parms: VV      U1      
 cg2d: Sum(rhs),rhsMax =   2.13801055790781E+01  2.91079702183523E-01
 Compute Stats, Diag. #    214  SIarea    vol(   0 ): 3.580E+14  Parms: SM      M1      
 Compute Stats, Diag. #    217  SIheff    vol(   0 ): 3.580E+14  Parms: SM      M1      
 Compute Stats, Diag. #    219  SIhsnow   vol(   0 ): 3.580E+14  Parms: SM      M1      
 Compute Stats, Diag. #     83  sIceLoad  vol(   0 ): 3.580E+14  Parms: SM      U1      
 Compute Stats, Diag. #    223  SIuice    vol(   0 ): 3.513E+14  Parms: UU      M1      
 Compute Stats, Diag. #    224  SIvice    vol(   0 ): 3.508E+14  Parms: VV      M1      
 Compute Stats, Diag. #    225  SItaux    vol(   0 ): 3.513E+14  Parms: UU      U1      
 Compute Stats, Diag. #    226  SItauy    vol(   0 ): 3.508E+14  Parms: VV      U1      
 cg2d: Sum(rhs),rhsMax =   2.13263524442561E+01  2.90968826117389E-01
 Computing Diagnostic #     86  oceQnet      Counter:       4   Parms: SM      U1      
 Computing Diagnostic #     87  oceQsw       Counter:       4   Parms: SM      U1      
 Computing Diagnostic #     84  oceFWflx     Counter:       4   Parms: SM      U1      
 Computing Diagnostic #     85  oceSflux     Counter:       4   Parms: SM      U1      
 Computing Diagnostic #     80  oceTAUX      Counter:       4   Parms: UU      U1      
           Vector  Mate for  oceTAUX      Diagnostic #     81  oceTAUY  exists 
 Computing Diagnostic #     81  oceTAUY      Counter:       4   Parms: VV      U1      
           Vector  Mate for  oceTAUY      Diagnostic #     80  oceTAUX  exists 
 Computing Diagnostic #     26  THETA        Counter:       4   Parms: SMR     MR      
 Computing Diagnostic #     27  SALT         Counter:       4   Parms: SMR     MR      
 Computing Diagnostic #     30  UVEL         Counter:       4   Parms: UUR     MR      
           Vector  Mate for  UVEL         Diagnostic #     31  VVEL     exists 
 Computing Diagnostic #     31  VVEL         Counter:       4   Parms: VVR     MR      
           Vector  Mate for  VVEL         Diagnostic #     30  UVEL     exists 
 Computing Diagnostic #    214  SIarea       Counter:       4   Parms: SM      M1      
 Computing Diagnostic #    217  SIheff       Counter:       4   Parms: SM      M1      
 Computing Diagnostic #    219  SIhsnow      Counter:       4   Parms: SM      M1      
 Computing Diagnostic #     83  sIceLoad     Counter:       4   Parms: SM      U1      
 Computing Diagnostic #    223  SIuice       Counter:       4   Parms: UU      M1      
           Vector  Mate for  SIuice       Diagnostic #    224  SIvice   exists 
 Computing Diagnostic #    224  SIvice       Counter:       4   Parms: VV      M1      
           Vector  Mate for  SIvice       Diagnostic #    223  SIuice   exists 
 Computing Diagnostic #    225  SItaux       Counter:       4   Parms: UU      U1      
           Vector  Mate for  SItaux       Diagnostic #    226  SItauy   exists 
 Computing Diagnostic #    226  SItauy       Counter:       4   Parms: VV      U1      
           Vector  Mate for  SItauy       Diagnostic #    225  SItaux   exists 
 Computing Diagnostic #    285  SIareaN      Counter:       4   Parms: SM      MX      
 Computing Diagnostic #    284  SIheffN      Counter:       4   Parms: SM      MX      
 Computing Diagnostic #    286  SIhsnowN     Counter:       4   Parms: SM      MX      
 Compute Stats, Diag. #    214  SIarea    vol(   0 ): 3.580E+14  Parms: SM      M1      
 Compute Stats, Diag. #    217  SIheff    vol(   0 ): 3.580E+14  Parms: SM      M1      
 Compute Stats, Diag. #    219  SIhsnow   vol(   0 ): 3.580E+14  Parms: SM      M1      
 Compute Stats, Diag. #     83  sIceLoad  vol(   0 ): 3.580E+14  Parms: SM      U1      
 Compute Stats, Diag. #    223  SIuice    vol(   0 ): 3.513E+14  Parms: UU      M1      
 Compute Stats, Diag. #    224  SIvice    vol(   0 ): 3.508E+14  Parms: VV      M1      
 Compute Stats, Diag. #    225  SItaux    vol(   0 ): 3.513E+14  Parms: UU      U1      
 Compute Stats, Diag. #    226  SItauy    vol(   0 ): 3.508E+14  Parms: VV      U1      
 cg2d: Sum(rhs),rhsMax =   2.12830975544219E+01  2.90852296386032E-01
 Compute Stats, Diag. #    214  SIarea    vol(   0 ): 3.580E+14  Parms: SM      M1      
 Compute Stats, Diag. #    217  SIheff    vol(   0 ): 3.580E+14  Parms: SM      M1      
 Compute Stats, Diag. #    219  SIhsnow   vol(   0 ): 3.580E+14  Parms: SM      M1      
 Compute Stats, Diag. #     83  sIceLoad  vol(   0 ): 3.580E+14  Parms: SM      U1      
 Compute Stats, Diag. #    223  SIuice    vol(   0 ): 3.513E+14  Parms: UU      M1      
 Compute Stats, Diag. #    224  SIvice    vol(   0 ): 3.508E+14  Parms: VV      M1      
 Compute Stats, Diag. #    225  SItaux    vol(   0 ): 3.513E+14  Parms: UU      U1      
 Compute Stats, Diag. #    226  SItauy    vol(   0 ): 3.508E+14  Parms: VV      U1      
 cg2d: Sum(rhs),rhsMax =   2.12444883582201E+01  2.90730827672761E-01
 Compute Stats, Diag. #    214  SIarea    vol(   0 ): 3.580E+14  Parms: SM      M1      
 Compute Stats, Diag. #    217  SIheff    vol(   0 ): 3.580E+14  Parms: SM      M1      
 Compute Stats, Diag. #    219  SIhsnow   vol(   0 ): 3.580E+14  Parms: SM      M1      
 Compute Stats, Diag. #     83  sIceLoad  vol(   0 ): 3.580E+14  Parms: SM      U1      
 Compute Stats, Diag. #    223  SIuice    vol(   0 ): 3.513E+14  Parms: UU      M1      
 Compute Stats, Diag. #    224  SIvice    vol(   0 ): 3.508E+14  Parms: VV      M1      
 Compute Stats, Diag. #    225  SItaux    vol(   0 ): 3.513E+14  Parms: UU      U1      
 Compute Stats, Diag. #    226  SItauy    vol(   0 ): 3.508E+14  Parms: VV      U1      
 cg2d: Sum(rhs),rhsMax =   2.12104075830117E+01  2.90605398503592E-01
 Compute Stats, Diag. #    214  SIarea    vol(   0 ): 3.580E+14  Parms: SM      M1      
 Compute Stats, Diag. #    217  SIheff    vol(   0 ): 3.580E+14  Parms: SM      M1      
 Compute Stats, Diag. #    219  SIhsnow   vol(   0 ): 3.580E+14  Parms: SM      M1      
 Compute Stats, Diag. #     83  sIceLoad  vol(   0 ): 3.580E+14  Parms: SM      U1      
 Compute Stats, Diag. #    223  SIuice    vol(   0 ): 3.513E+14  Parms: UU      M1      
 Compute Stats, Diag. #    224  SIvice    vol(   0 ): 3.508E+14  Parms: VV      M1      
 Compute Stats, Diag. #    225  SItaux    vol(   0 ): 3.513E+14  Parms: UU      U1      
 Compute Stats, Diag. #    226  SItauy    vol(   0 ): 3.508E+14  Parms: VV      U1      
 cg2d: Sum(rhs),rhsMax =   2.11838978282337E+01  2.90477150226345E-01
(PID.TID 0000.0001)      cg2d_init_res =   5.88771585980015E-02
(PID.TID 0000.0001)      cg2d_iters(min,last) =      -1      26
(PID.TID 0000.0001)      cg2d_last_res =   2.59901622472714E-05
(PID.TID 0000.0001) // =======================================================
(PID.TID 0000.0001) // Begin MONITOR dynamic field statistics
(PID.TID 0000.0001) // =======================================================
(PID.TID 0000.0001) %MON time_tsnumber                =                   488
(PID.TID 0000.0001) %MON time_secondsf                =   4.3920000000000E+05
(PID.TID 0000.0001) %MON dynstat_eta_max              =   1.0282891323562E+00
(PID.TID 0000.0001) %MON dynstat_eta_min              =  -1.8452562099481E+00
(PID.TID 0000.0001) %MON dynstat_eta_mean             =  -6.7011434518752E-04
(PID.TID 0000.0001) %MON dynstat_eta_sd               =   6.3059361948955E-01
(PID.TID 0000.0001) %MON dynstat_eta_del2             =   5.6264059551455E-05
(PID.TID 0000.0001) %MON dynstat_uvel_max             =   8.1244593401664E-01
(PID.TID 0000.0001) %MON dynstat_uvel_min             =  -5.7320065813025E-01
(PID.TID 0000.0001) %MON dynstat_uvel_mean            =   1.3188871118827E-03
(PID.TID 0000.0001) %MON dynstat_uvel_sd              =   1.8516874237375E-02
(PID.TID 0000.0001) %MON dynstat_uvel_del2            =   7.5910547257825E-06
(PID.TID 0000.0001) %MON dynstat_vvel_max             =   8.5787841862290E-01
(PID.TID 0000.0001) %MON dynstat_vvel_min             =  -8.4422731350371E-01
(PID.TID 0000.0001) %MON dynstat_vvel_mean            =   1.0355560695860E-03
(PID.TID 0000.0001) %MON dynstat_vvel_sd              =   2.0022020948796E-02
(PID.TID 0000.0001) %MON dynstat_vvel_del2            =   7.7123770985122E-06
(PID.TID 0000.0001) %MON dynstat_wvel_max             =   3.5352823556414E-04
(PID.TID 0000.0001) %MON dynstat_wvel_min             =  -9.1234286318814E-04
(PID.TID 0000.0001) %MON dynstat_wvel_mean            =   1.1486687286476E-08
(PID.TID 0000.0001) %MON dynstat_wvel_sd              =   1.8391563405292E-05
(PID.TID 0000.0001) %MON dynstat_wvel_del2            =   1.4503812074926E-08
(PID.TID 0000.0001) %MON dynstat_theta_max            =   3.2246591000259E+01
(PID.TID 0000.0001) %MON dynstat_theta_min            =  -2.0869813801469E+00
(PID.TID 0000.0001) %MON dynstat_theta_mean           =   3.5903666153513E+00
(PID.TID 0000.0001) %MON dynstat_theta_sd             =   4.4363757394889E+00
(PID.TID 0000.0001) %MON dynstat_theta_del2           =   9.4750006309980E-05
(PID.TID 0000.0001) %MON dynstat_salt_max             =   4.0711555988754E+01
(PID.TID 0000.0001) %MON dynstat_salt_min             =   9.8340643754912E+00
(PID.TID 0000.0001) %MON dynstat_salt_mean            =   3.4725577101700E+01
(PID.TID 0000.0001) %MON dynstat_salt_sd              =   3.7701949220217E-01
(PID.TID 0000.0001) %MON dynstat_salt_del2            =   3.5044339523808E-05
(PID.TID 0000.0001) %MON dynstat_sst_max              =   3.2246591000259E+01
(PID.TID 0000.0001) %MON dynstat_sst_min              =  -1.8103438521106E+00
(PID.TID 0000.0001) %MON dynstat_sst_mean             =   1.8485524284299E+01
(PID.TID 0000.0001) %MON dynstat_sst_sd               =   1.0202059830493E+01
(PID.TID 0000.0001) %MON dynstat_sst_del2             =   8.1733376241867E-04
(PID.TID 0000.0001) %MON dynstat_sss_max              =   3.9111807695914E+01
(PID.TID 0000.0001) %MON dynstat_sss_min              =   9.8340643754912E+00
(PID.TID 0000.0001) %MON dynstat_sss_mean             =   3.4700079183011E+01
(PID.TID 0000.0001) %MON dynstat_sss_sd               =   1.1590220561001E+00
(PID.TID 0000.0001) %MON dynstat_sss_del2             =   1.0662747260518E-03
(PID.TID 0000.0001) %MON forcing_qnet_max             =   7.2963299560547E+02
(PID.TID 0000.0001) %MON forcing_qnet_min             =  -2.1646669921875E+03
(PID.TID 0000.0001) %MON forcing_qnet_mean            =  -2.8532156068143E+01
(PID.TID 0000.0001) %MON forcing_qnet_sd              =   2.0504414287884E+02
(PID.TID 0000.0001) %MON forcing_qnet_del2            =   3.2109434580199E-01
(PID.TID 0000.0001) %MON forcing_qsw_max              =   0.0000000000000E+00
(PID.TID 0000.0001) %MON forcing_qsw_min              =  -1.1024048419711E+02
(PID.TID 0000.0001) %MON forcing_qsw_mean             =  -2.2698488014817E+01
(PID.TID 0000.0001) %MON forcing_qsw_sd               =   3.0561666152249E+01
(PID.TID 0000.0001) %MON forcing_qsw_del2             =   2.0311413445707E-02
(PID.TID 0000.0001) %MON forcing_empmr_max            =   1.2459310237318E-03
(PID.TID 0000.0001) %MON forcing_empmr_min            =  -4.5315403491259E-02
(PID.TID 0000.0001) %MON forcing_empmr_mean           =  -9.5878585371486E-07
(PID.TID 0000.0001) %MON forcing_empmr_sd             =   2.2200439900455E-04
(PID.TID 0000.0001) %MON forcing_empmr_del2           =   2.1672003211917E-06
(PID.TID 0000.0001) %MON forcing_fu_max               =   8.1972575187683E-01
(PID.TID 0000.0001) %MON forcing_fu_min               =  -7.2219925503827E-01
(PID.TID 0000.0001) %MON forcing_fu_mean              =   7.6579205585405E-03
(PID.TID 0000.0001) %MON forcing_fu_sd                =   1.0254577570500E-01
(PID.TID 0000.0001) %MON forcing_fu_del2              =   1.2921905212084E-04
(PID.TID 0000.0001) %MON forcing_fv_max               =   7.8013160824776E-01
(PID.TID 0000.0001) %MON forcing_fv_min               =  -6.3354548811913E-01
(PID.TID 0000.0001) %MON forcing_fv_mean              =  -5.8135684914544E-03
(PID.TID 0000.0001) %MON forcing_fv_sd                =   9.4659548528429E-02
(PID.TID 0000.0001) %MON forcing_fv_del2              =   1.1156366806952E-04
(PID.TID 0000.0001) %MON trAdv_CFL_u_max              =   1.0300890355016E-02
(PID.TID 0000.0001) %MON trAdv_CFL_v_max              =   1.4971882783895E-02
(PID.TID 0000.0001) %MON trAdv_CFL_w_max              =   2.0920015775719E-02
(PID.TID 0000.0001) %MON advcfl_uvel_max              =   8.9965446666019E-03
(PID.TID 0000.0001) %MON advcfl_vvel_max              =   1.5228117598285E-02
(PID.TID 0000.0001) %MON advcfl_wvel_max              =   1.8198354273639E-02
(PID.TID 0000.0001) %MON advcfl_W_hf_max              =   1.9084835669722E-02
(PID.TID 0000.0001) %MON pe_b_mean                    =   5.2306780632377E-04
(PID.TID 0000.0001) %MON ke_max                       =   3.6972068537587E-01
(PID.TID 0000.0001) %MON ke_mean                      =   3.5999237503914E-04
(PID.TID 0000.0001) %MON ke_vol                       =   1.3349976367288E+18
(PID.TID 0000.0001) %MON vort_r_min                   =  -1.6364503512694E-05
(PID.TID 0000.0001) %MON vort_r_max                   =   2.4229606783169E-05
(PID.TID 0000.0001) %MON vort_a_mean                  =  -1.9727864647440E-05
(PID.TID 0000.0001) %MON vort_a_sd                    =   7.4542931616701E-05
(PID.TID 0000.0001) %MON vort_p_mean                  =  -2.1760536509414E-05
(PID.TID 0000.0001) %MON vort_p_sd                    =   9.7246673102663E-05
(PID.TID 0000.0001) %MON surfExpan_theta_mean         =   8.7454646521489E-08
(PID.TID 0000.0001) %MON surfExpan_salt_mean          =   2.5179856524930E-08
(PID.TID 0000.0001) // =======================================================
(PID.TID 0000.0001) // End MONITOR dynamic field statistics
(PID.TID 0000.0001) // =======================================================
(PID.TID 0000.0001) // =======================================================
(PID.TID 0000.0001) // Begin MONITOR SEAICE statistics
(PID.TID 0000.0001) // =======================================================
(PID.TID 0000.0001) %MON seaice_tsnumber              =                   488
(PID.TID 0000.0001) %MON seaice_time_sec              =   4.3920000000000E+05
(PID.TID 0000.0001) %MON seaice_uice_max              =   4.0000000000000E-01
(PID.TID 0000.0001) %MON seaice_uice_min              =  -4.0000000000000E-01
(PID.TID 0000.0001) %MON seaice_uice_mean             =  -8.3054598624025E-03
(PID.TID 0000.0001) %MON seaice_uice_sd               =   1.9802383574176E-01
(PID.TID 0000.0001) %MON seaice_uice_del2             =   2.2931571122150E-04
(PID.TID 0000.0001) %MON seaice_vice_max              =   4.0000000000000E-01
(PID.TID 0000.0001) %MON seaice_vice_min              =  -4.0000000000000E-01
(PID.TID 0000.0001) %MON seaice_vice_mean             =  -2.1960776359499E-02
(PID.TID 0000.0001) %MON seaice_vice_sd               =   2.1302038025672E-01
(PID.TID 0000.0001) %MON seaice_vice_del2             =   2.3932563818061E-04
(PID.TID 0000.0001) %MON seaice_area_max              =   1.0000000000000E+00
(PID.TID 0000.0001) %MON seaice_area_min              =   0.0000000000000E+00
(PID.TID 0000.0001) %MON seaice_area_mean             =   6.7032486009090E-02
(PID.TID 0000.0001) %MON seaice_area_sd               =   2.3191540954818E-01
(PID.TID 0000.0001) %MON seaice_area_del2             =   4.1118107997881E-04
(PID.TID 0000.0001) %MON seaice_heff_max              =   2.5079413524596E+01
(PID.TID 0000.0001) %MON seaice_heff_min              =   0.0000000000000E+00
(PID.TID 0000.0001) %MON seaice_heff_mean             =   2.1386531210031E-01
(PID.TID 0000.0001) %MON seaice_heff_sd               =   1.0678069706458E+00
(PID.TID 0000.0001) %MON seaice_heff_del2             =   3.8668876904515E-03
(PID.TID 0000.0001) %MON seaice_hsnow_max             =   8.2835183750722E+00
(PID.TID 0000.0001) %MON seaice_hsnow_min             =   0.0000000000000E+00
(PID.TID 0000.0001) %MON seaice_hsnow_mean            =   2.4206507617303E-02
(PID.TID 0000.0001) %MON seaice_hsnow_sd              =   1.5659376913997E-01
(PID.TID 0000.0001) %MON seaice_hsnow_del2            =   1.2439903616986E-03
(PID.TID 0000.0001) // =======================================================
(PID.TID 0000.0001) // End MONITOR SEAICE statistics
(PID.TID 0000.0001) // =======================================================
 Computing Diagnostic #     86  oceQnet      Counter:       4   Parms: SM      U1      
 Computing Diagnostic #     87  oceQsw       Counter:       4   Parms: SM      U1      
 Computing Diagnostic #     84  oceFWflx     Counter:       4   Parms: SM      U1      
 Computing Diagnostic #     85  oceSflux     Counter:       4   Parms: SM      U1      
 Computing Diagnostic #     80  oceTAUX      Counter:       4   Parms: UU      U1      
           Vector  Mate for  oceTAUX      Diagnostic #     81  oceTAUY  exists 
 Computing Diagnostic #     81  oceTAUY      Counter:       4   Parms: VV      U1      
           Vector  Mate for  oceTAUY      Diagnostic #     80  oceTAUX  exists 
 Computing Diagnostic #     26  THETA        Counter:       4   Parms: SMR     MR      
 Computing Diagnostic #     27  SALT         Counter:       4   Parms: SMR     MR      
 Computing Diagnostic #     30  UVEL         Counter:       4   Parms: UUR     MR      
           Vector  Mate for  UVEL         Diagnostic #     31  VVEL     exists 
 Computing Diagnostic #     31  VVEL         Counter:       4   Parms: VVR     MR      
           Vector  Mate for  VVEL         Diagnostic #     30  UVEL     exists 
 Computing Diagnostic #    214  SIarea       Counter:       4   Parms: SM      M1      
 Computing Diagnostic #    217  SIheff       Counter:       4   Parms: SM      M1      
 Computing Diagnostic #    219  SIhsnow      Counter:       4   Parms: SM      M1      
 Computing Diagnostic #     83  sIceLoad     Counter:       4   Parms: SM      U1      
 Computing Diagnostic #    223  SIuice       Counter:       4   Parms: UU      M1      
           Vector  Mate for  SIuice       Diagnostic #    224  SIvice   exists 
 Computing Diagnostic #    224  SIvice       Counter:       4   Parms: VV      M1      
           Vector  Mate for  SIvice       Diagnostic #    223  SIuice   exists 
 Computing Diagnostic #    225  SItaux       Counter:       4   Parms: UU      U1      
           Vector  Mate for  SItaux       Diagnostic #    226  SItauy   exists 
 Computing Diagnostic #    226  SItauy       Counter:       4   Parms: VV      U1      
           Vector  Mate for  SItauy       Diagnostic #    225  SItaux   exists 
 Computing Diagnostic #    285  SIareaN      Counter:       4   Parms: SM      MX      
 Computing Diagnostic #    284  SIheffN      Counter:       4   Parms: SM      MX      
 Computing Diagnostic #    286  SIhsnowN     Counter:       4   Parms: SM      MX      
 Compute Stats, Diag. #    214  SIarea    vol(   0 ): 3.580E+14  Parms: SM      M1      
 Compute Stats, Diag. #    217  SIheff    vol(   0 ): 3.580E+14  Parms: SM      M1      
 Compute Stats, Diag. #    219  SIhsnow   vol(   0 ): 3.580E+14  Parms: SM      M1      
 Compute Stats, Diag. #     83  sIceLoad  vol(   0 ): 3.580E+14  Parms: SM      U1      
 Compute Stats, Diag. #    223  SIuice    vol(   0 ): 3.513E+14  Parms: UU      M1      
 Compute Stats, Diag. #    224  SIvice    vol(   0 ): 3.508E+14  Parms: VV      M1      
 Compute Stats, Diag. #    225  SItaux    vol(   0 ): 3.513E+14  Parms: UU      U1      
 Compute Stats, Diag. #    226  SItauy    vol(   0 ): 3.508E+14  Parms: VV      U1      
 cg2d: Sum(rhs),rhsMax =   2.11566251802904E+01  2.90347047124839E-01
 Compute Stats, Diag. #    214  SIarea    vol(   0 ): 3.580E+14  Parms: SM      M1      
 Compute Stats, Diag. #    217  SIheff    vol(   0 ): 3.580E+14  Parms: SM      M1      
 Compute Stats, Diag. #    219  SIhsnow   vol(   0 ): 3.580E+14  Parms: SM      M1      
 Compute Stats, Diag. #     83  sIceLoad  vol(   0 ): 3.580E+14  Parms: SM      U1      
 Compute Stats, Diag. #    223  SIuice    vol(   0 ): 3.513E+14  Parms: UU      M1      
 Compute Stats, Diag. #    224  SIvice    vol(   0 ): 3.508E+14  Parms: VV      M1      
 Compute Stats, Diag. #    225  SItaux    vol(   0 ): 3.513E+14  Parms: UU      U1      
 Compute Stats, Diag. #    226  SItauy    vol(   0 ): 3.508E+14  Parms: VV      U1      
 cg2d: Sum(rhs),rhsMax =   2.11358319973315E+01  2.90215890625799E-01
 Compute Stats, Diag. #    214  SIarea    vol(   0 ): 3.580E+14  Parms: SM      M1      
 Compute Stats, Diag. #    217  SIheff    vol(   0 ): 3.580E+14  Parms: SM      M1      
 Compute Stats, Diag. #    219  SIhsnow   vol(   0 ): 3.580E+14  Parms: SM      M1      
 Compute Stats, Diag. #     83  sIceLoad  vol(   0 ): 3.580E+14  Parms: SM      U1      
 Compute Stats, Diag. #    223  SIuice    vol(   0 ): 3.513E+14  Parms: UU      M1      
 Compute Stats, Diag. #    224  SIvice    vol(   0 ): 3.508E+14  Parms: VV      M1      
 Compute Stats, Diag. #    225  SItaux    vol(   0 ): 3.513E+14  Parms: UU      U1      
 Compute Stats, Diag. #    226  SItauy    vol(   0 ): 3.508E+14  Parms: VV      U1      
 cg2d: Sum(rhs),rhsMax =   2.11216148147166E+01  2.90084716412240E-01
 Compute Stats, Diag. #    214  SIarea    vol(   0 ): 3.580E+14  Parms: SM      M1      
 Compute Stats, Diag. #    217  SIheff    vol(   0 ): 3.580E+14  Parms: SM      M1      
 Compute Stats, Diag. #    219  SIhsnow   vol(   0 ): 3.580E+14  Parms: SM      M1      
 Compute Stats, Diag. #     83  sIceLoad  vol(   0 ): 3.580E+14  Parms: SM      U1      
 Compute Stats, Diag. #    223  SIuice    vol(   0 ): 3.513E+14  Parms: UU      M1      
 Compute Stats, Diag. #    224  SIvice    vol(   0 ): 3.508E+14  Parms: VV      M1      
 Compute Stats, Diag. #    225  SItaux    vol(   0 ): 3.513E+14  Parms: UU      U1      
 Compute Stats, Diag. #    226  SItauy    vol(   0 ): 3.508E+14  Parms: VV      U1      
 cg2d: Sum(rhs),rhsMax =   2.11027924353673E+01  2.89954298403348E-01
 Computing Diagnostic #     86  oceQnet      Counter:       4   Parms: SM      U1      
 Computing Diagnostic #     87  oceQsw       Counter:       4   Parms: SM      U1      
 Computing Diagnostic #     84  oceFWflx     Counter:       4   Parms: SM      U1      
 Computing Diagnostic #     85  oceSflux     Counter:       4   Parms: SM      U1      
 Computing Diagnostic #     80  oceTAUX      Counter:       4   Parms: UU      U1      
           Vector  Mate for  oceTAUX      Diagnostic #     81  oceTAUY  exists 
 Computing Diagnostic #     81  oceTAUY      Counter:       4   Parms: VV      U1      
           Vector  Mate for  oceTAUY      Diagnostic #     80  oceTAUX  exists 
 Computing Diagnostic #     26  THETA        Counter:       4   Parms: SMR     MR      
 Computing Diagnostic #     27  SALT         Counter:       4   Parms: SMR     MR      
 Computing Diagnostic #     30  UVEL         Counter:       4   Parms: UUR     MR      
           Vector  Mate for  UVEL         Diagnostic #     31  VVEL     exists 
 Computing Diagnostic #     31  VVEL         Counter:       4   Parms: VVR     MR      
           Vector  Mate for  VVEL         Diagnostic #     30  UVEL     exists 
 Computing Diagnostic #    214  SIarea       Counter:       4   Parms: SM      M1      
 Computing Diagnostic #    217  SIheff       Counter:       4   Parms: SM      M1      
 Computing Diagnostic #    219  SIhsnow      Counter:       4   Parms: SM      M1      
 Computing Diagnostic #     83  sIceLoad     Counter:       4   Parms: SM      U1      
 Computing Diagnostic #    223  SIuice       Counter:       4   Parms: UU      M1      
           Vector  Mate for  SIuice       Diagnostic #    224  SIvice   exists 
 Computing Diagnostic #    224  SIvice       Counter:       4   Parms: VV      M1      
           Vector  Mate for  SIvice       Diagnostic #    223  SIuice   exists 
 Computing Diagnostic #    225  SItaux       Counter:       4   Parms: UU      U1      
           Vector  Mate for  SItaux       Diagnostic #    226  SItauy   exists 
 Computing Diagnostic #    226  SItauy       Counter:       4   Parms: VV      U1      
           Vector  Mate for  SItauy       Diagnostic #    225  SItaux   exists 
 Computing Diagnostic #    285  SIareaN      Counter:       4   Parms: SM      MX      
 Computing Diagnostic #    284  SIheffN      Counter:       4   Parms: SM      MX      
 Computing Diagnostic #    286  SIhsnowN     Counter:       4   Parms: SM      MX      
 Compute Stats, Diag. #    214  SIarea    vol(   0 ): 3.580E+14  Parms: SM      M1      
 Compute Stats, Diag. #    217  SIheff    vol(   0 ): 3.580E+14  Parms: SM      M1      
 Compute Stats, Diag. #    219  SIhsnow   vol(   0 ): 3.580E+14  Parms: SM      M1      
 Compute Stats, Diag. #     83  sIceLoad  vol(   0 ): 3.580E+14  Parms: SM      U1      
 Compute Stats, Diag. #    223  SIuice    vol(   0 ): 3.513E+14  Parms: UU      M1      
 Compute Stats, Diag. #    224  SIvice    vol(   0 ): 3.508E+14  Parms: VV      M1      
 Compute Stats, Diag. #    225  SItaux    vol(   0 ): 3.513E+14  Parms: UU      U1      
 Compute Stats, Diag. #    226  SItauy    vol(   0 ): 3.508E+14  Parms: VV      U1      
 cg2d: Sum(rhs),rhsMax =   2.10793310222309E+01  2.89825240165683E-01
 Compute Stats, Diag. #    214  SIarea    vol(   0 ): 3.580E+14  Parms: SM      M1      
 Compute Stats, Diag. #    217  SIheff    vol(   0 ): 3.580E+14  Parms: SM      M1      
 Compute Stats, Diag. #    219  SIhsnow   vol(   0 ): 3.580E+14  Parms: SM      M1      
 Compute Stats, Diag. #     83  sIceLoad  vol(   0 ): 3.580E+14  Parms: SM      U1      
 Compute Stats, Diag. #    223  SIuice    vol(   0 ): 3.513E+14  Parms: UU      M1      
 Compute Stats, Diag. #    224  SIvice    vol(   0 ): 3.508E+14  Parms: VV      M1      
 Compute Stats, Diag. #    225  SItaux    vol(   0 ): 3.513E+14  Parms: UU      U1      
 Compute Stats, Diag. #    226  SItauy    vol(   0 ): 3.508E+14  Parms: VV      U1      
 cg2d: Sum(rhs),rhsMax =   2.10636174414125E+01  2.89698313067105E-01
 Compute Stats, Diag. #    214  SIarea    vol(   0 ): 3.580E+14  Parms: SM      M1      
 Compute Stats, Diag. #    217  SIheff    vol(   0 ): 3.580E+14  Parms: SM      M1      
 Compute Stats, Diag. #    219  SIhsnow   vol(   0 ): 3.580E+14  Parms: SM      M1      
 Compute Stats, Diag. #     83  sIceLoad  vol(   0 ): 3.580E+14  Parms: SM      U1      
 Compute Stats, Diag. #    223  SIuice    vol(   0 ): 3.513E+14  Parms: UU      M1      
 Compute Stats, Diag. #    224  SIvice    vol(   0 ): 3.508E+14  Parms: VV      M1      
 Compute Stats, Diag. #    225  SItaux    vol(   0 ): 3.513E+14  Parms: UU      U1      
 Compute Stats, Diag. #    226  SItauy    vol(   0 ): 3.508E+14  Parms: VV      U1      
 cg2d: Sum(rhs),rhsMax =   2.10459992733902E+01  2.89574216771693E-01
 Compute Stats, Diag. #    214  SIarea    vol(   0 ): 3.580E+14  Parms: SM      M1      
 Compute Stats, Diag. #    217  SIheff    vol(   0 ): 3.580E+14  Parms: SM      M1      
 Compute Stats, Diag. #    219  SIhsnow   vol(   0 ): 3.580E+14  Parms: SM      M1      
 Compute Stats, Diag. #     83  sIceLoad  vol(   0 ): 3.580E+14  Parms: SM      U1      
 Compute Stats, Diag. #    223  SIuice    vol(   0 ): 3.513E+14  Parms: UU      M1      
 Compute Stats, Diag. #    224  SIvice    vol(   0 ): 3.508E+14  Parms: VV      M1      
 Compute Stats, Diag. #    225  SItaux    vol(   0 ): 3.513E+14  Parms: UU      U1      
 Compute Stats, Diag. #    226  SItauy    vol(   0 ): 3.508E+14  Parms: VV      U1      
 cg2d: Sum(rhs),rhsMax =   2.10238162992509E+01  2.89454092497088E-01
(PID.TID 0000.0001)      cg2d_init_res =   5.47518069539434E-02
(PID.TID 0000.0001)      cg2d_iters(min,last) =      -1      26
(PID.TID 0000.0001)      cg2d_last_res =   2.39542684728647E-05
(PID.TID 0000.0001) // =======================================================
(PID.TID 0000.0001) // Begin MONITOR dynamic field statistics
(PID.TID 0000.0001) // =======================================================
(PID.TID 0000.0001) %MON time_tsnumber                =                   496
(PID.TID 0000.0001) %MON time_secondsf                =   4.4640000000000E+05
(PID.TID 0000.0001) %MON dynstat_eta_max              =   1.0316224504373E+00
(PID.TID 0000.0001) %MON dynstat_eta_min              =  -1.8423461272860E+00
(PID.TID 0000.0001) %MON dynstat_eta_mean             =  -6.6505045515937E-04
(PID.TID 0000.0001) %MON dynstat_eta_sd               =   6.3044100753297E-01
(PID.TID 0000.0001) %MON dynstat_eta_del2             =   5.6172769911109E-05
(PID.TID 0000.0001) %MON dynstat_uvel_max             =   8.0663721613937E-01
(PID.TID 0000.0001) %MON dynstat_uvel_min             =  -5.6860669723239E-01
(PID.TID 0000.0001) %MON dynstat_uvel_mean            =   1.2989798956220E-03
(PID.TID 0000.0001) %MON dynstat_uvel_sd              =   1.8514728844263E-02
(PID.TID 0000.0001) %MON dynstat_uvel_del2            =   7.5780996819097E-06
(PID.TID 0000.0001) %MON dynstat_vvel_max             =   8.6998109913575E-01
(PID.TID 0000.0001) %MON dynstat_vvel_min             =  -8.4291162600214E-01
(PID.TID 0000.0001) %MON dynstat_vvel_mean            =   1.0426488816280E-03
(PID.TID 0000.0001) %MON dynstat_vvel_sd              =   1.9982683022638E-02
(PID.TID 0000.0001) %MON dynstat_vvel_del2            =   7.6886500622633E-06
(PID.TID 0000.0001) %MON dynstat_wvel_max             =   3.3741214020200E-04
(PID.TID 0000.0001) %MON dynstat_wvel_min             =  -9.0965171154045E-04
(PID.TID 0000.0001) %MON dynstat_wvel_mean            =   1.1542985392867E-08
(PID.TID 0000.0001) %MON dynstat_wvel_sd              =   1.8423639832629E-05
(PID.TID 0000.0001) %MON dynstat_wvel_del2            =   1.4456860697033E-08
(PID.TID 0000.0001) %MON dynstat_theta_max            =   3.2252116418798E+01
(PID.TID 0000.0001) %MON dynstat_theta_min            =  -2.0859427199389E+00
(PID.TID 0000.0001) %MON dynstat_theta_mean           =   3.5903778515932E+00
(PID.TID 0000.0001) %MON dynstat_theta_sd             =   4.4364480616393E+00
(PID.TID 0000.0001) %MON dynstat_theta_del2           =   9.4637937679221E-05
(PID.TID 0000.0001) %MON dynstat_salt_max             =   4.0711555699722E+01
(PID.TID 0000.0001) %MON dynstat_salt_min             =   9.9092762407956E+00
(PID.TID 0000.0001) %MON dynstat_salt_mean            =   3.4725577076416E+01
(PID.TID 0000.0001) %MON dynstat_salt_sd              =   3.7701935541795E-01
(PID.TID 0000.0001) %MON dynstat_salt_del2            =   3.4772349180839E-05
(PID.TID 0000.0001) %MON dynstat_sst_max              =   3.2252116418798E+01
(PID.TID 0000.0001) %MON dynstat_sst_min              =  -1.8102998389076E+00
(PID.TID 0000.0001) %MON dynstat_sst_mean             =   1.8488666283149E+01
(PID.TID 0000.0001) %MON dynstat_sst_sd               =   1.0205089027314E+01
(PID.TID 0000.0001) %MON dynstat_sst_del2             =   8.1793463441023E-04
(PID.TID 0000.0001) %MON dynstat_sss_max              =   3.9111458372176E+01
(PID.TID 0000.0001) %MON dynstat_sss_min              =   9.9092762407956E+00
(PID.TID 0000.0001) %MON dynstat_sss_mean             =   3.4700103730953E+01
(PID.TID 0000.0001) %MON dynstat_sss_sd               =   1.1592758749097E+00
(PID.TID 0000.0001) %MON dynstat_sss_del2             =   1.0540288468042E-03
(PID.TID 0000.0001) %MON forcing_qnet_max             =   6.9960644531250E+02
(PID.TID 0000.0001) %MON forcing_qnet_min             =  -7.1507226562500E+02
(PID.TID 0000.0001) %MON forcing_qnet_mean            =  -1.9480759150420E+01
(PID.TID 0000.0001) %MON forcing_qnet_sd              =   2.0174706788002E+02
(PID.TID 0000.0001) %MON forcing_qnet_del2            =   3.2172018510415E-01
(PID.TID 0000.0001) %MON forcing_qsw_max              =   0.0000000000000E+00
(PID.TID 0000.0001) %MON forcing_qsw_min              =  -1.1021071110370E+02
(PID.TID 0000.0001) %MON forcing_qsw_mean             =  -2.1178422324114E+01
(PID.TID 0000.0001) %MON forcing_qsw_sd               =   2.9796574276542E+01
(PID.TID 0000.0001) %MON forcing_qsw_del2             =   2.1444054695741E-02
(PID.TID 0000.0001) %MON forcing_empmr_max            =   1.5260145300999E-03
(PID.TID 0000.0001) %MON forcing_empmr_min            =  -3.8993574678898E-02
(PID.TID 0000.0001) %MON forcing_empmr_mean           =  -8.0229794565253E-07
(PID.TID 0000.0001) %MON forcing_empmr_sd             =   1.9421688301782E-04
(PID.TID 0000.0001) %MON forcing_empmr_del2           =   1.7939862563037E-06
(PID.TID 0000.0001) %MON forcing_fu_max               =   8.0652856826782E-01
(PID.TID 0000.0001) %MON forcing_fu_min               =  -7.2090230018773E-01
(PID.TID 0000.0001) %MON forcing_fu_mean              =   7.3267569655976E-03
(PID.TID 0000.0001) %MON forcing_fu_sd                =   1.0324047394564E-01
(PID.TID 0000.0001) %MON forcing_fu_del2              =   1.3060707186673E-04
(PID.TID 0000.0001) %MON forcing_fv_max               =   7.3567470908165E-01
(PID.TID 0000.0001) %MON forcing_fv_min               =  -6.5108337998390E-01
(PID.TID 0000.0001) %MON forcing_fv_mean              =  -5.7209386272687E-03
(PID.TID 0000.0001) %MON forcing_fv_sd                =   9.4765520416501E-02
(PID.TID 0000.0001) %MON forcing_fv_del2              =   1.1266954570840E-04
(PID.TID 0000.0001) %MON trAdv_CFL_u_max              =   1.0206109868793E-02
(PID.TID 0000.0001) %MON trAdv_CFL_v_max              =   1.5147017601545E-02
(PID.TID 0000.0001) %MON trAdv_CFL_w_max              =   2.0929308733431E-02
(PID.TID 0000.0001) %MON advcfl_uvel_max              =   8.9050253848917E-03
(PID.TID 0000.0001) %MON advcfl_vvel_max              =   1.5442951120265E-02
(PID.TID 0000.0001) %MON advcfl_wvel_max              =   1.7891193060506E-02
(PID.TID 0000.0001) %MON advcfl_W_hf_max              =   1.8763098719533E-02
(PID.TID 0000.0001) %MON pe_b_mean                    =   5.2281464903433E-04
(PID.TID 0000.0001) %MON ke_max                       =   3.7078136672181E-01
(PID.TID 0000.0001) %MON ke_mean                      =   3.5917710263790E-04
(PID.TID 0000.0001) %MON ke_vol                       =   1.3349976385908E+18
(PID.TID 0000.0001) %MON vort_r_min                   =  -1.6552414608815E-05
(PID.TID 0000.0001) %MON vort_r_max                   =   2.4528840948298E-05
(PID.TID 0000.0001) %MON vort_a_mean                  =  -1.9727864647440E-05
(PID.TID 0000.0001) %MON vort_a_sd                    =   7.4542933611053E-05
(PID.TID 0000.0001) %MON vort_p_mean                  =  -2.1760536552290E-05
(PID.TID 0000.0001) %MON vort_p_sd                    =   9.7246708760333E-05
(PID.TID 0000.0001) %MON surfExpan_theta_mean         =   1.3494355347754E-07
(PID.TID 0000.0001) %MON surfExpan_salt_mean          =   1.5297967997232E-08
(PID.TID 0000.0001) // =======================================================
(PID.TID 0000.0001) // End MONITOR dynamic field statistics
(PID.TID 0000.0001) // =======================================================
(PID.TID 0000.0001) // =======================================================
(PID.TID 0000.0001) // Begin MONITOR SEAICE statistics
(PID.TID 0000.0001) // =======================================================
(PID.TID 0000.0001) %MON seaice_tsnumber              =                   496
(PID.TID 0000.0001) %MON seaice_time_sec              =   4.4640000000000E+05
(PID.TID 0000.0001) %MON seaice_uice_max              =   4.0000000000000E-01
(PID.TID 0000.0001) %MON seaice_uice_min              =  -4.0000000000000E-01
(PID.TID 0000.0001) %MON seaice_uice_mean             =  -8.3054598624025E-03
(PID.TID 0000.0001) %MON seaice_uice_sd               =   1.9802383574176E-01
(PID.TID 0000.0001) %MON seaice_uice_del2             =   2.2931571122150E-04
(PID.TID 0000.0001) %MON seaice_vice_max              =   4.0000000000000E-01
(PID.TID 0000.0001) %MON seaice_vice_min              =  -4.0000000000000E-01
(PID.TID 0000.0001) %MON seaice_vice_mean             =  -2.1960776359499E-02
(PID.TID 0000.0001) %MON seaice_vice_sd               =   2.1302038025672E-01
(PID.TID 0000.0001) %MON seaice_vice_del2             =   2.3932563818061E-04
(PID.TID 0000.0001) %MON seaice_area_max              =   1.0000000000000E+00
(PID.TID 0000.0001) %MON seaice_area_min              =   0.0000000000000E+00
(PID.TID 0000.0001) %MON seaice_area_mean             =   6.6987550558007E-02
(PID.TID 0000.0001) %MON seaice_area_sd               =   2.3183611282702E-01
(PID.TID 0000.0001) %MON seaice_area_del2             =   4.1069257649617E-04
(PID.TID 0000.0001) %MON seaice_heff_max              =   2.5076558252098E+01
(PID.TID 0000.0001) %MON seaice_heff_min              =   0.0000000000000E+00
(PID.TID 0000.0001) %MON seaice_heff_mean             =   2.1382026812738E-01
(PID.TID 0000.0001) %MON seaice_heff_sd               =   1.0677613827172E+00
(PID.TID 0000.0001) %MON seaice_heff_del2             =   3.8661222189853E-03
(PID.TID 0000.0001) %MON seaice_hsnow_max             =   8.2825824954780E+00
(PID.TID 0000.0001) %MON seaice_hsnow_min             =   0.0000000000000E+00
(PID.TID 0000.0001) %MON seaice_hsnow_mean            =   2.4198031304985E-02
(PID.TID 0000.0001) %MON seaice_hsnow_sd              =   1.5657939705175E-01
(PID.TID 0000.0001) %MON seaice_hsnow_del2            =   1.2438450252421E-03
(PID.TID 0000.0001) // =======================================================
(PID.TID 0000.0001) // End MONITOR SEAICE statistics
(PID.TID 0000.0001) // =======================================================
 Computing Diagnostic #     86  oceQnet      Counter:       4   Parms: SM      U1      
 Computing Diagnostic #     87  oceQsw       Counter:       4   Parms: SM      U1      
 Computing Diagnostic #     84  oceFWflx     Counter:       4   Parms: SM      U1      
 Computing Diagnostic #     85  oceSflux     Counter:       4   Parms: SM      U1      
 Computing Diagnostic #     80  oceTAUX      Counter:       4   Parms: UU      U1      
           Vector  Mate for  oceTAUX      Diagnostic #     81  oceTAUY  exists 
 Computing Diagnostic #     81  oceTAUY      Counter:       4   Parms: VV      U1      
           Vector  Mate for  oceTAUY      Diagnostic #     80  oceTAUX  exists 
 Computing Diagnostic #     26  THETA        Counter:       4   Parms: SMR     MR      
 Computing Diagnostic #     27  SALT         Counter:       4   Parms: SMR     MR      
 Computing Diagnostic #     30  UVEL         Counter:       4   Parms: UUR     MR      
           Vector  Mate for  UVEL         Diagnostic #     31  VVEL     exists 
 Computing Diagnostic #     31  VVEL         Counter:       4   Parms: VVR     MR      
           Vector  Mate for  VVEL         Diagnostic #     30  UVEL     exists 
 Computing Diagnostic #    214  SIarea       Counter:       4   Parms: SM      M1      
 Computing Diagnostic #    217  SIheff       Counter:       4   Parms: SM      M1      
 Computing Diagnostic #    219  SIhsnow      Counter:       4   Parms: SM      M1      
 Computing Diagnostic #     83  sIceLoad     Counter:       4   Parms: SM      U1      
 Computing Diagnostic #    223  SIuice       Counter:       4   Parms: UU      M1      
           Vector  Mate for  SIuice       Diagnostic #    224  SIvice   exists 
 Computing Diagnostic #    224  SIvice       Counter:       4   Parms: VV      M1      
           Vector  Mate for  SIvice       Diagnostic #    223  SIuice   exists 
 Computing Diagnostic #    225  SItaux       Counter:       4   Parms: UU      U1      
           Vector  Mate for  SItaux       Diagnostic #    226  SItauy   exists 
 Computing Diagnostic #    226  SItauy       Counter:       4   Parms: VV      U1      
           Vector  Mate for  SItauy       Diagnostic #    225  SItaux   exists 
 Computing Diagnostic #    285  SIareaN      Counter:       4   Parms: SM      MX      
 Computing Diagnostic #    284  SIheffN      Counter:       4   Parms: SM      MX      
 Computing Diagnostic #    286  SIhsnowN     Counter:       4   Parms: SM      MX      
 Compute Stats, Diag. #    214  SIarea    vol(   0 ): 3.580E+14  Parms: SM      M1      
 Compute Stats, Diag. #    217  SIheff    vol(   0 ): 3.580E+14  Parms: SM      M1      
 Compute Stats, Diag. #    219  SIhsnow   vol(   0 ): 3.580E+14  Parms: SM      M1      
 Compute Stats, Diag. #     83  sIceLoad  vol(   0 ): 3.580E+14  Parms: SM      U1      
 Compute Stats, Diag. #    223  SIuice    vol(   0 ): 3.513E+14  Parms: UU      M1      
 Compute Stats, Diag. #    224  SIvice    vol(   0 ): 3.508E+14  Parms: VV      M1      
 Compute Stats, Diag. #    225  SItaux    vol(   0 ): 3.513E+14  Parms: UU      U1      
 Compute Stats, Diag. #    226  SItauy    vol(   0 ): 3.508E+14  Parms: VV      U1      
 cg2d: Sum(rhs),rhsMax =   2.10083256482138E+01  2.89338550595804E-01
 Compute Stats, Diag. #    214  SIarea    vol(   0 ): 3.580E+14  Parms: SM      M1      
 Compute Stats, Diag. #    217  SIheff    vol(   0 ): 3.580E+14  Parms: SM      M1      
 Compute Stats, Diag. #    219  SIhsnow   vol(   0 ): 3.580E+14  Parms: SM      M1      
 Compute Stats, Diag. #     83  sIceLoad  vol(   0 ): 3.580E+14  Parms: SM      U1      
 Compute Stats, Diag. #    223  SIuice    vol(   0 ): 3.513E+14  Parms: UU      M1      
 Compute Stats, Diag. #    224  SIvice    vol(   0 ): 3.508E+14  Parms: VV      M1      
 Compute Stats, Diag. #    225  SItaux    vol(   0 ): 3.513E+14  Parms: UU      U1      
 Compute Stats, Diag. #    226  SItauy    vol(   0 ): 3.508E+14  Parms: VV      U1      
 cg2d: Sum(rhs),rhsMax =   2.09842306014142E+01  2.89227933240173E-01
 Compute Stats, Diag. #    214  SIarea    vol(   0 ): 3.580E+14  Parms: SM      M1      
 Compute Stats, Diag. #    217  SIheff    vol(   0 ): 3.580E+14  Parms: SM      M1      
 Compute Stats, Diag. #    219  SIhsnow   vol(   0 ): 3.580E+14  Parms: SM      M1      
 Compute Stats, Diag. #     83  sIceLoad  vol(   0 ): 3.580E+14  Parms: SM      U1      
 Compute Stats, Diag. #    223  SIuice    vol(   0 ): 3.513E+14  Parms: UU      M1      
 Compute Stats, Diag. #    224  SIvice    vol(   0 ): 3.508E+14  Parms: VV      M1      
 Compute Stats, Diag. #    225  SItaux    vol(   0 ): 3.513E+14  Parms: UU      U1      
 Compute Stats, Diag. #    226  SItauy    vol(   0 ): 3.508E+14  Parms: VV      U1      
 cg2d: Sum(rhs),rhsMax =   2.09601223548916E+01  2.89123261436027E-01
 Compute Stats, Diag. #    214  SIarea    vol(   0 ): 3.580E+14  Parms: SM      M1      
 Compute Stats, Diag. #    217  SIheff    vol(   0 ): 3.580E+14  Parms: SM      M1      
 Compute Stats, Diag. #    219  SIhsnow   vol(   0 ): 3.580E+14  Parms: SM      M1      
 Compute Stats, Diag. #     83  sIceLoad  vol(   0 ): 3.580E+14  Parms: SM      U1      
 Compute Stats, Diag. #    223  SIuice    vol(   0 ): 3.513E+14  Parms: UU      M1      
 Compute Stats, Diag. #    224  SIvice    vol(   0 ): 3.508E+14  Parms: VV      M1      
 Compute Stats, Diag. #    225  SItaux    vol(   0 ): 3.513E+14  Parms: UU      U1      
 Compute Stats, Diag. #    226  SItauy    vol(   0 ): 3.508E+14  Parms: VV      U1      
 cg2d: Sum(rhs),rhsMax =   2.09417171261076E+01  2.89024545042762E-01
 Computing Diagnostic #     86  oceQnet      Counter:       4   Parms: SM      U1      
 Computing Diagnostic #     87  oceQsw       Counter:       4   Parms: SM      U1      
 Computing Diagnostic #     84  oceFWflx     Counter:       4   Parms: SM      U1      
 Computing Diagnostic #     85  oceSflux     Counter:       4   Parms: SM      U1      
 Computing Diagnostic #     80  oceTAUX      Counter:       4   Parms: UU      U1      
           Vector  Mate for  oceTAUX      Diagnostic #     81  oceTAUY  exists 
 Computing Diagnostic #     81  oceTAUY      Counter:       4   Parms: VV      U1      
           Vector  Mate for  oceTAUY      Diagnostic #     80  oceTAUX  exists 
 Computing Diagnostic #     26  THETA        Counter:       4   Parms: SMR     MR      
 Computing Diagnostic #     27  SALT         Counter:       4   Parms: SMR     MR      
 Computing Diagnostic #     30  UVEL         Counter:       4   Parms: UUR     MR      
           Vector  Mate for  UVEL         Diagnostic #     31  VVEL     exists 
 Computing Diagnostic #     31  VVEL         Counter:       4   Parms: VVR     MR      
           Vector  Mate for  VVEL         Diagnostic #     30  UVEL     exists 
 Computing Diagnostic #    214  SIarea       Counter:       4   Parms: SM      M1      
 Computing Diagnostic #    217  SIheff       Counter:       4   Parms: SM      M1      
 Computing Diagnostic #    219  SIhsnow      Counter:       4   Parms: SM      M1      
 Computing Diagnostic #     83  sIceLoad     Counter:       4   Parms: SM      U1      
 Computing Diagnostic #    223  SIuice       Counter:       4   Parms: UU      M1      
           Vector  Mate for  SIuice       Diagnostic #    224  SIvice   exists 
 Computing Diagnostic #    224  SIvice       Counter:       4   Parms: VV      M1      
           Vector  Mate for  SIvice       Diagnostic #    223  SIuice   exists 
 Computing Diagnostic #    225  SItaux       Counter:       4   Parms: UU      U1      
           Vector  Mate for  SItaux       Diagnostic #    226  SItauy   exists 
 Computing Diagnostic #    226  SItauy       Counter:       4   Parms: VV      U1      
           Vector  Mate for  SItauy       Diagnostic #    225  SItaux   exists 
 Computing Diagnostic #    285  SIareaN      Counter:       4   Parms: SM      MX      
 Computing Diagnostic #    284  SIheffN      Counter:       4   Parms: SM      MX      
 Computing Diagnostic #    286  SIhsnowN     Counter:       4   Parms: SM      MX      
 Compute Stats, Diag. #    214  SIarea    vol(   0 ): 3.580E+14  Parms: SM      M1      
 Compute Stats, Diag. #    217  SIheff    vol(   0 ): 3.580E+14  Parms: SM      M1      
 Compute Stats, Diag. #    219  SIhsnow   vol(   0 ): 3.580E+14  Parms: SM      M1      
 Compute Stats, Diag. #     83  sIceLoad  vol(   0 ): 3.580E+14  Parms: SM      U1      
 Compute Stats, Diag. #    223  SIuice    vol(   0 ): 3.513E+14  Parms: UU      M1      
 Compute Stats, Diag. #    224  SIvice    vol(   0 ): 3.508E+14  Parms: VV      M1      
 Compute Stats, Diag. #    225  SItaux    vol(   0 ): 3.513E+14  Parms: UU      U1      
 Compute Stats, Diag. #    226  SItauy    vol(   0 ): 3.508E+14  Parms: VV      U1      
 cg2d: Sum(rhs),rhsMax =   2.09215185348263E+01  2.88932172650939E-01
 Compute Stats, Diag. #    214  SIarea    vol(   0 ): 3.580E+14  Parms: SM      M1      
 Compute Stats, Diag. #    217  SIheff    vol(   0 ): 3.580E+14  Parms: SM      M1      
 Compute Stats, Diag. #    219  SIhsnow   vol(   0 ): 3.580E+14  Parms: SM      M1      
 Compute Stats, Diag. #     83  sIceLoad  vol(   0 ): 3.580E+14  Parms: SM      U1      
 Compute Stats, Diag. #    223  SIuice    vol(   0 ): 3.513E+14  Parms: UU      M1      
 Compute Stats, Diag. #    224  SIvice    vol(   0 ): 3.508E+14  Parms: VV      M1      
 Compute Stats, Diag. #    225  SItaux    vol(   0 ): 3.513E+14  Parms: UU      U1      
 Compute Stats, Diag. #    226  SItauy    vol(   0 ): 3.508E+14  Parms: VV      U1      
 cg2d: Sum(rhs),rhsMax =   2.08939253081291E+01  2.88846697035271E-01
 Compute Stats, Diag. #    214  SIarea    vol(   0 ): 3.580E+14  Parms: SM      M1      
 Compute Stats, Diag. #    217  SIheff    vol(   0 ): 3.580E+14  Parms: SM      M1      
 Compute Stats, Diag. #    219  SIhsnow   vol(   0 ): 3.580E+14  Parms: SM      M1      
 Compute Stats, Diag. #     83  sIceLoad  vol(   0 ): 3.580E+14  Parms: SM      U1      
 Compute Stats, Diag. #    223  SIuice    vol(   0 ): 3.513E+14  Parms: UU      M1      
 Compute Stats, Diag. #    224  SIvice    vol(   0 ): 3.508E+14  Parms: VV      M1      
 Compute Stats, Diag. #    225  SItaux    vol(   0 ): 3.513E+14  Parms: UU      U1      
 Compute Stats, Diag. #    226  SItauy    vol(   0 ): 3.508E+14  Parms: VV      U1      
 cg2d: Sum(rhs),rhsMax =   2.08625009231488E+01  2.88768667956582E-01
 Compute Stats, Diag. #    214  SIarea    vol(   0 ): 3.580E+14  Parms: SM      M1      
 Compute Stats, Diag. #    217  SIheff    vol(   0 ): 3.580E+14  Parms: SM      M1      
 Compute Stats, Diag. #    219  SIhsnow   vol(   0 ): 3.580E+14  Parms: SM      M1      
 Compute Stats, Diag. #     83  sIceLoad  vol(   0 ): 3.580E+14  Parms: SM      U1      
 Compute Stats, Diag. #    223  SIuice    vol(   0 ): 3.513E+14  Parms: UU      M1      
 Compute Stats, Diag. #    224  SIvice    vol(   0 ): 3.508E+14  Parms: VV      M1      
 Compute Stats, Diag. #    225  SItaux    vol(   0 ): 3.513E+14  Parms: UU      U1      
 Compute Stats, Diag. #    226  SItauy    vol(   0 ): 3.508E+14  Parms: VV      U1      
 cg2d: Sum(rhs),rhsMax =   2.08258549362805E+01  2.88698079520281E-01
(PID.TID 0000.0001)      cg2d_init_res =   5.32418352569054E-02
(PID.TID 0000.0001)      cg2d_iters(min,last) =      -1      26
(PID.TID 0000.0001)      cg2d_last_res =   2.13890554737744E-05
(PID.TID 0000.0001) // =======================================================
(PID.TID 0000.0001) // Begin MONITOR dynamic field statistics
(PID.TID 0000.0001) // =======================================================
(PID.TID 0000.0001) %MON time_tsnumber                =                   504
(PID.TID 0000.0001) %MON time_secondsf                =   4.5360000000000E+05
(PID.TID 0000.0001) %MON dynstat_eta_max              =   1.0347083986056E+00
(PID.TID 0000.0001) %MON dynstat_eta_min              =  -1.8405111973973E+00
(PID.TID 0000.0001) %MON dynstat_eta_mean             =  -6.5878830500209E-04
(PID.TID 0000.0001) %MON dynstat_eta_sd               =   6.3046232533759E-01
(PID.TID 0000.0001) %MON dynstat_eta_del2             =   5.6200953794256E-05
(PID.TID 0000.0001) %MON dynstat_uvel_max             =   7.9959688709526E-01
(PID.TID 0000.0001) %MON dynstat_uvel_min             =  -5.7623783132109E-01
(PID.TID 0000.0001) %MON dynstat_uvel_mean            =   1.2839922273587E-03
(PID.TID 0000.0001) %MON dynstat_uvel_sd              =   1.8517033404962E-02
(PID.TID 0000.0001) %MON dynstat_uvel_del2            =   7.5662507984455E-06
(PID.TID 0000.0001) %MON dynstat_vvel_max             =   8.7593222168697E-01
(PID.TID 0000.0001) %MON dynstat_vvel_min             =  -8.4247544540816E-01
(PID.TID 0000.0001) %MON dynstat_vvel_mean            =   1.0596816818001E-03
(PID.TID 0000.0001) %MON dynstat_vvel_sd              =   1.9939574171810E-02
(PID.TID 0000.0001) %MON dynstat_vvel_del2            =   7.6688389633465E-06
(PID.TID 0000.0001) %MON dynstat_wvel_max             =   3.2166033508622E-04
(PID.TID 0000.0001) %MON dynstat_wvel_min             =  -9.0955529409011E-04
(PID.TID 0000.0001) %MON dynstat_wvel_mean            =   1.1045965012628E-08
(PID.TID 0000.0001) %MON dynstat_wvel_sd              =   1.8402506374001E-05
(PID.TID 0000.0001) %MON dynstat_wvel_del2            =   1.4423189585886E-08
(PID.TID 0000.0001) %MON dynstat_theta_max            =   3.2260666111373E+01
(PID.TID 0000.0001) %MON dynstat_theta_min            =  -2.0846097284150E+00
(PID.TID 0000.0001) %MON dynstat_theta_mean           =   3.5903820386780E+00
(PID.TID 0000.0001) %MON dynstat_theta_sd             =   4.4364918716569E+00
(PID.TID 0000.0001) %MON dynstat_theta_del2           =   9.4531792758095E-05
(PID.TID 0000.0001) %MON dynstat_salt_max             =   4.0711555318282E+01
(PID.TID 0000.0001) %MON dynstat_salt_min             =   9.9941707691504E+00
(PID.TID 0000.0001) %MON dynstat_salt_mean            =   3.4725577039297E+01
(PID.TID 0000.0001) %MON dynstat_salt_sd              =   3.7701920013510E-01
(PID.TID 0000.0001) %MON dynstat_salt_del2            =   3.4535306004963E-05
(PID.TID 0000.0001) %MON dynstat_sst_max              =   3.2260666111373E+01
(PID.TID 0000.0001) %MON dynstat_sst_min              =  -1.8115558638401E+00
(PID.TID 0000.0001) %MON dynstat_sst_mean             =   1.8489471194038E+01
(PID.TID 0000.0001) %MON dynstat_sst_sd               =   1.0207539747543E+01
(PID.TID 0000.0001) %MON dynstat_sst_del2             =   8.1853219521617E-04
(PID.TID 0000.0001) %MON dynstat_sss_max              =   3.9111130939559E+01
(PID.TID 0000.0001) %MON dynstat_sss_min              =   9.9941707691504E+00
(PID.TID 0000.0001) %MON dynstat_sss_mean             =   3.4700112390274E+01
(PID.TID 0000.0001) %MON dynstat_sss_sd               =   1.1595291671038E+00
(PID.TID 0000.0001) %MON dynstat_sss_del2             =   1.0431751990862E-03
(PID.TID 0000.0001) %MON forcing_qnet_max             =   7.0150152587891E+02
(PID.TID 0000.0001) %MON forcing_qnet_min             =  -7.7571492389971E+02
(PID.TID 0000.0001) %MON forcing_qnet_mean            =  -1.9762497752105E+00
(PID.TID 0000.0001) %MON forcing_qnet_sd              =   1.8783051612179E+02
(PID.TID 0000.0001) %MON forcing_qnet_del2            =   3.2455544892847E-01
(PID.TID 0000.0001) %MON forcing_qsw_max              =   0.0000000000000E+00
(PID.TID 0000.0001) %MON forcing_qsw_min              =  -1.1072856644895E+02
(PID.TID 0000.0001) %MON forcing_qsw_mean             =  -1.8735090111035E+01
(PID.TID 0000.0001) %MON forcing_qsw_sd               =   2.7708971789932E+01
(PID.TID 0000.0001) %MON forcing_qsw_del2             =   2.1970093010190E-02
(PID.TID 0000.0001) %MON forcing_empmr_max            =   1.1758083710447E-03
(PID.TID 0000.0001) %MON forcing_empmr_min            =  -4.1437197476625E-02
(PID.TID 0000.0001) %MON forcing_empmr_mean           =  -1.3253858473611E-06
(PID.TID 0000.0001) %MON forcing_empmr_sd             =   2.0222138156763E-04
(PID.TID 0000.0001) %MON forcing_empmr_del2           =   2.0358048823565E-06
(PID.TID 0000.0001) %MON forcing_fu_max               =   8.1396085023880E-01
(PID.TID 0000.0001) %MON forcing_fu_min               =  -7.1500597592947E-01
(PID.TID 0000.0001) %MON forcing_fu_mean              =   7.3252357869566E-03
(PID.TID 0000.0001) %MON forcing_fu_sd                =   1.0409932773219E-01
(PID.TID 0000.0001) %MON forcing_fu_del2              =   1.3258360234957E-04
(PID.TID 0000.0001) %MON forcing_fv_max               =   7.0174625515938E-01
(PID.TID 0000.0001) %MON forcing_fv_min               =  -6.7523661255836E-01
(PID.TID 0000.0001) %MON forcing_fv_mean              =  -6.2100575927863E-03
(PID.TID 0000.0001) %MON forcing_fv_sd                =   9.5266545100406E-02
(PID.TID 0000.0001) %MON forcing_fv_del2              =   1.1433372056926E-04
(PID.TID 0000.0001) %MON trAdv_CFL_u_max              =   1.0115181037221E-02
(PID.TID 0000.0001) %MON trAdv_CFL_v_max              =   1.5246841242083E-02
(PID.TID 0000.0001) %MON trAdv_CFL_w_max              =   2.0898271728385E-02
(PID.TID 0000.0001) %MON advcfl_uvel_max              =   8.8140274264892E-03
(PID.TID 0000.0001) %MON advcfl_vvel_max              =   1.5548588926375E-02
(PID.TID 0000.0001) %MON advcfl_wvel_max              =   1.7667048998703E-02
(PID.TID 0000.0001) %MON advcfl_W_hf_max              =   1.8528127259157E-02
(PID.TID 0000.0001) %MON pe_b_mean                    =   5.2284999490324E-04
(PID.TID 0000.0001) %MON ke_max                       =   3.7340297668451E-01
(PID.TID 0000.0001) %MON ke_mean                      =   3.5838686043197E-04
(PID.TID 0000.0001) %MON ke_vol                       =   1.3349976406689E+18
(PID.TID 0000.0001) %MON vort_r_min                   =  -1.6612627929877E-05
(PID.TID 0000.0001) %MON vort_r_max                   =   2.4672810228258E-05
(PID.TID 0000.0001) %MON vort_a_mean                  =  -1.9727864647440E-05
(PID.TID 0000.0001) %MON vort_a_sd                    =   7.4542939214746E-05
(PID.TID 0000.0001) %MON vort_p_mean                  =  -2.1760536597319E-05
(PID.TID 0000.0001) %MON vort_p_sd                    =   9.7246749952281E-05
(PID.TID 0000.0001) %MON surfExpan_theta_mean         =   2.0551645488954E-07
(PID.TID 0000.0001) %MON surfExpan_salt_mean          =   1.5777933262448E-08
(PID.TID 0000.0001) // =======================================================
(PID.TID 0000.0001) // End MONITOR dynamic field statistics
(PID.TID 0000.0001) // =======================================================
(PID.TID 0000.0001) // =======================================================
(PID.TID 0000.0001) // Begin MONITOR SEAICE statistics
(PID.TID 0000.0001) // =======================================================
(PID.TID 0000.0001) %MON seaice_tsnumber              =                   504
(PID.TID 0000.0001) %MON seaice_time_sec              =   4.5360000000000E+05
(PID.TID 0000.0001) %MON seaice_uice_max              =   4.0000000000000E-01
(PID.TID 0000.0001) %MON seaice_uice_min              =  -4.0000000000000E-01
(PID.TID 0000.0001) %MON seaice_uice_mean             =  -8.3054598624025E-03
(PID.TID 0000.0001) %MON seaice_uice_sd               =   1.9802383574176E-01
(PID.TID 0000.0001) %MON seaice_uice_del2             =   2.2931571122150E-04
(PID.TID 0000.0001) %MON seaice_vice_max              =   4.0000000000000E-01
(PID.TID 0000.0001) %MON seaice_vice_min              =  -4.0000000000000E-01
(PID.TID 0000.0001) %MON seaice_vice_mean             =  -2.1960776359499E-02
(PID.TID 0000.0001) %MON seaice_vice_sd               =   2.1302038025672E-01
(PID.TID 0000.0001) %MON seaice_vice_del2             =   2.3932563818061E-04
(PID.TID 0000.0001) %MON seaice_area_max              =   1.0000000000000E+00
(PID.TID 0000.0001) %MON seaice_area_min              =   0.0000000000000E+00
(PID.TID 0000.0001) %MON seaice_area_mean             =   6.6935795339442E-02
(PID.TID 0000.0001) %MON seaice_area_sd               =   2.3174416685724E-01
(PID.TID 0000.0001) %MON seaice_area_del2             =   4.1015167697827E-04
(PID.TID 0000.0001) %MON seaice_heff_max              =   2.5073658460984E+01
(PID.TID 0000.0001) %MON seaice_heff_min              =   0.0000000000000E+00
(PID.TID 0000.0001) %MON seaice_heff_mean             =   2.1377278136350E-01
(PID.TID 0000.0001) %MON seaice_heff_sd               =   1.0677166404527E+00
(PID.TID 0000.0001) %MON seaice_heff_del2             =   3.8653652658700E-03
(PID.TID 0000.0001) %MON seaice_hsnow_max             =   8.2816319620761E+00
(PID.TID 0000.0001) %MON seaice_hsnow_min             =   0.0000000000000E+00
(PID.TID 0000.0001) %MON seaice_hsnow_mean            =   2.4191056367225E-02
(PID.TID 0000.0001) %MON seaice_hsnow_sd              =   1.5656613376444E-01
(PID.TID 0000.0001) %MON seaice_hsnow_del2            =   1.2437048848015E-03
(PID.TID 0000.0001) // =======================================================
(PID.TID 0000.0001) // End MONITOR SEAICE statistics
(PID.TID 0000.0001) // =======================================================
 Computing Diagnostic #     86  oceQnet      Counter:       4   Parms: SM      U1      
 Computing Diagnostic #     87  oceQsw       Counter:       4   Parms: SM      U1      
 Computing Diagnostic #     84  oceFWflx     Counter:       4   Parms: SM      U1      
 Computing Diagnostic #     85  oceSflux     Counter:       4   Parms: SM      U1      
 Computing Diagnostic #     80  oceTAUX      Counter:       4   Parms: UU      U1      
           Vector  Mate for  oceTAUX      Diagnostic #     81  oceTAUY  exists 
 Computing Diagnostic #     81  oceTAUY      Counter:       4   Parms: VV      U1      
           Vector  Mate for  oceTAUY      Diagnostic #     80  oceTAUX  exists 
 Computing Diagnostic #     26  THETA        Counter:       4   Parms: SMR     MR      
 Computing Diagnostic #     27  SALT         Counter:       4   Parms: SMR     MR      
 Computing Diagnostic #     30  UVEL         Counter:       4   Parms: UUR     MR      
           Vector  Mate for  UVEL         Diagnostic #     31  VVEL     exists 
 Computing Diagnostic #     31  VVEL         Counter:       4   Parms: VVR     MR      
           Vector  Mate for  VVEL         Diagnostic #     30  UVEL     exists 
 Computing Diagnostic #    214  SIarea       Counter:       4   Parms: SM      M1      
 Computing Diagnostic #    217  SIheff       Counter:       4   Parms: SM      M1      
 Computing Diagnostic #    219  SIhsnow      Counter:       4   Parms: SM      M1      
 Computing Diagnostic #     83  sIceLoad     Counter:       4   Parms: SM      U1      
 Computing Diagnostic #    223  SIuice       Counter:       4   Parms: UU      M1      
           Vector  Mate for  SIuice       Diagnostic #    224  SIvice   exists 
 Computing Diagnostic #    224  SIvice       Counter:       4   Parms: VV      M1      
           Vector  Mate for  SIvice       Diagnostic #    223  SIuice   exists 
 Computing Diagnostic #    225  SItaux       Counter:       4   Parms: UU      U1      
           Vector  Mate for  SItaux       Diagnostic #    226  SItauy   exists 
 Computing Diagnostic #    226  SItauy       Counter:       4   Parms: VV      U1      
           Vector  Mate for  SItauy       Diagnostic #    225  SItaux   exists 
 Computing Diagnostic #    285  SIareaN      Counter:       4   Parms: SM      MX      
 Computing Diagnostic #    284  SIheffN      Counter:       4   Parms: SM      MX      
 Computing Diagnostic #    286  SIhsnowN     Counter:       4   Parms: SM      MX      
 Compute Stats, Diag. #    214  SIarea    vol(   0 ): 3.580E+14  Parms: SM      M1      
 Compute Stats, Diag. #    217  SIheff    vol(   0 ): 3.580E+14  Parms: SM      M1      
 Compute Stats, Diag. #    219  SIhsnow   vol(   0 ): 3.580E+14  Parms: SM      M1      
 Compute Stats, Diag. #     83  sIceLoad  vol(   0 ): 3.580E+14  Parms: SM      U1      
 Compute Stats, Diag. #    223  SIuice    vol(   0 ): 3.513E+14  Parms: UU      M1      
 Compute Stats, Diag. #    224  SIvice    vol(   0 ): 3.508E+14  Parms: VV      M1      
 Compute Stats, Diag. #    225  SItaux    vol(   0 ): 3.513E+14  Parms: UU      U1      
 Compute Stats, Diag. #    226  SItauy    vol(   0 ): 3.508E+14  Parms: VV      U1      
 cg2d: Sum(rhs),rhsMax =   2.07932713189797E+01  2.88635508854557E-01
 Compute Stats, Diag. #    214  SIarea    vol(   0 ): 3.580E+14  Parms: SM      M1      
 Compute Stats, Diag. #    217  SIheff    vol(   0 ): 3.580E+14  Parms: SM      M1      
 Compute Stats, Diag. #    219  SIhsnow   vol(   0 ): 3.580E+14  Parms: SM      M1      
 Compute Stats, Diag. #     83  sIceLoad  vol(   0 ): 3.580E+14  Parms: SM      U1      
 Compute Stats, Diag. #    223  SIuice    vol(   0 ): 3.513E+14  Parms: UU      M1      
 Compute Stats, Diag. #    224  SIvice    vol(   0 ): 3.508E+14  Parms: VV      M1      
 Compute Stats, Diag. #    225  SItaux    vol(   0 ): 3.513E+14  Parms: UU      U1      
 Compute Stats, Diag. #    226  SItauy    vol(   0 ): 3.508E+14  Parms: VV      U1      
 cg2d: Sum(rhs),rhsMax =   2.07550582233132E+01  2.88580958597952E-01
 Compute Stats, Diag. #    214  SIarea    vol(   0 ): 3.580E+14  Parms: SM      M1      
 Compute Stats, Diag. #    217  SIheff    vol(   0 ): 3.580E+14  Parms: SM      M1      
 Compute Stats, Diag. #    219  SIhsnow   vol(   0 ): 3.580E+14  Parms: SM      M1      
 Compute Stats, Diag. #     83  sIceLoad  vol(   0 ): 3.580E+14  Parms: SM      U1      
 Compute Stats, Diag. #    223  SIuice    vol(   0 ): 3.513E+14  Parms: UU      M1      
 Compute Stats, Diag. #    224  SIvice    vol(   0 ): 3.508E+14  Parms: VV      M1      
 Compute Stats, Diag. #    225  SItaux    vol(   0 ): 3.513E+14  Parms: UU      U1      
 Compute Stats, Diag. #    226  SItauy    vol(   0 ): 3.508E+14  Parms: VV      U1      
 cg2d: Sum(rhs),rhsMax =   2.07125546116195E+01  2.88534548313263E-01
 Compute Stats, Diag. #    214  SIarea    vol(   0 ): 3.580E+14  Parms: SM      M1      
 Compute Stats, Diag. #    217  SIheff    vol(   0 ): 3.580E+14  Parms: SM      M1      
 Compute Stats, Diag. #    219  SIhsnow   vol(   0 ): 3.580E+14  Parms: SM      M1      
 Compute Stats, Diag. #     83  sIceLoad  vol(   0 ): 3.580E+14  Parms: SM      U1      
 Compute Stats, Diag. #    223  SIuice    vol(   0 ): 3.513E+14  Parms: UU      M1      
 Compute Stats, Diag. #    224  SIvice    vol(   0 ): 3.508E+14  Parms: VV      M1      
 Compute Stats, Diag. #    225  SItaux    vol(   0 ): 3.513E+14  Parms: UU      U1      
 Compute Stats, Diag. #    226  SItauy    vol(   0 ): 3.508E+14  Parms: VV      U1      
 cg2d: Sum(rhs),rhsMax =   2.06713694910157E+01  2.88496287570994E-01
 Computing Diagnostic #     86  oceQnet      Counter:       4   Parms: SM      U1      
 Computing Diagnostic #     87  oceQsw       Counter:       4   Parms: SM      U1      
 Computing Diagnostic #     84  oceFWflx     Counter:       4   Parms: SM      U1      
 Computing Diagnostic #     85  oceSflux     Counter:       4   Parms: SM      U1      
 Computing Diagnostic #     80  oceTAUX      Counter:       4   Parms: UU      U1      
           Vector  Mate for  oceTAUX      Diagnostic #     81  oceTAUY  exists 
 Computing Diagnostic #     81  oceTAUY      Counter:       4   Parms: VV      U1      
           Vector  Mate for  oceTAUY      Diagnostic #     80  oceTAUX  exists 
 Computing Diagnostic #     26  THETA        Counter:       4   Parms: SMR     MR      
 Computing Diagnostic #     27  SALT         Counter:       4   Parms: SMR     MR      
 Computing Diagnostic #     30  UVEL         Counter:       4   Parms: UUR     MR      
           Vector  Mate for  UVEL         Diagnostic #     31  VVEL     exists 
 Computing Diagnostic #     31  VVEL         Counter:       4   Parms: VVR     MR      
           Vector  Mate for  VVEL         Diagnostic #     30  UVEL     exists 
 Computing Diagnostic #    214  SIarea       Counter:       4   Parms: SM      M1      
 Computing Diagnostic #    217  SIheff       Counter:       4   Parms: SM      M1      
 Computing Diagnostic #    219  SIhsnow      Counter:       4   Parms: SM      M1      
 Computing Diagnostic #     83  sIceLoad     Counter:       4   Parms: SM      U1      
 Computing Diagnostic #    223  SIuice       Counter:       4   Parms: UU      M1      
           Vector  Mate for  SIuice       Diagnostic #    224  SIvice   exists 
 Computing Diagnostic #    224  SIvice       Counter:       4   Parms: VV      M1      
           Vector  Mate for  SIvice       Diagnostic #    223  SIuice   exists 
 Computing Diagnostic #    225  SItaux       Counter:       4   Parms: UU      U1      
           Vector  Mate for  SItaux       Diagnostic #    226  SItauy   exists 
 Computing Diagnostic #    226  SItauy       Counter:       4   Parms: VV      U1      
           Vector  Mate for  SItauy       Diagnostic #    225  SItaux   exists 
 Computing Diagnostic #    285  SIareaN      Counter:       4   Parms: SM      MX      
 Computing Diagnostic #    284  SIheffN      Counter:       4   Parms: SM      MX      
 Computing Diagnostic #    286  SIhsnowN     Counter:       4   Parms: SM      MX      
 Compute Stats, Diag. #    214  SIarea    vol(   0 ): 3.580E+14  Parms: SM      M1      
 Compute Stats, Diag. #    217  SIheff    vol(   0 ): 3.580E+14  Parms: SM      M1      
 Compute Stats, Diag. #    219  SIhsnow   vol(   0 ): 3.580E+14  Parms: SM      M1      
 Compute Stats, Diag. #     83  sIceLoad  vol(   0 ): 3.580E+14  Parms: SM      U1      
 Compute Stats, Diag. #    223  SIuice    vol(   0 ): 3.513E+14  Parms: UU      M1      
 Compute Stats, Diag. #    224  SIvice    vol(   0 ): 3.508E+14  Parms: VV      M1      
 Compute Stats, Diag. #    225  SItaux    vol(   0 ): 3.513E+14  Parms: UU      U1      
 Compute Stats, Diag. #    226  SItauy    vol(   0 ): 3.508E+14  Parms: VV      U1      
 cg2d: Sum(rhs),rhsMax =   2.06265263063032E+01  2.88466440723007E-01
 Compute Stats, Diag. #    214  SIarea    vol(   0 ): 3.580E+14  Parms: SM      M1      
 Compute Stats, Diag. #    217  SIheff    vol(   0 ): 3.580E+14  Parms: SM      M1      
 Compute Stats, Diag. #    219  SIhsnow   vol(   0 ): 3.580E+14  Parms: SM      M1      
 Compute Stats, Diag. #     83  sIceLoad  vol(   0 ): 3.580E+14  Parms: SM      U1      
 Compute Stats, Diag. #    223  SIuice    vol(   0 ): 3.513E+14  Parms: UU      M1      
 Compute Stats, Diag. #    224  SIvice    vol(   0 ): 3.508E+14  Parms: VV      M1      
 Compute Stats, Diag. #    225  SItaux    vol(   0 ): 3.513E+14  Parms: UU      U1      
 Compute Stats, Diag. #    226  SItauy    vol(   0 ): 3.508E+14  Parms: VV      U1      
 cg2d: Sum(rhs),rhsMax =   2.05759423959270E+01  2.88445193818080E-01
 Compute Stats, Diag. #    214  SIarea    vol(   0 ): 3.580E+14  Parms: SM      M1      
 Compute Stats, Diag. #    217  SIheff    vol(   0 ): 3.580E+14  Parms: SM      M1      
 Compute Stats, Diag. #    219  SIhsnow   vol(   0 ): 3.580E+14  Parms: SM      M1      
 Compute Stats, Diag. #     83  sIceLoad  vol(   0 ): 3.580E+14  Parms: SM      U1      
 Compute Stats, Diag. #    223  SIuice    vol(   0 ): 3.513E+14  Parms: UU      M1      
 Compute Stats, Diag. #    224  SIvice    vol(   0 ): 3.508E+14  Parms: VV      M1      
 Compute Stats, Diag. #    225  SItaux    vol(   0 ): 3.513E+14  Parms: UU      U1      
 Compute Stats, Diag. #    226  SItauy    vol(   0 ): 3.508E+14  Parms: VV      U1      
 cg2d: Sum(rhs),rhsMax =   2.05159211158231E+01  2.88432615857788E-01
 Compute Stats, Diag. #    214  SIarea    vol(   0 ): 3.580E+14  Parms: SM      M1      
 Compute Stats, Diag. #    217  SIheff    vol(   0 ): 3.580E+14  Parms: SM      M1      
 Compute Stats, Diag. #    219  SIhsnow   vol(   0 ): 3.580E+14  Parms: SM      M1      
 Compute Stats, Diag. #     83  sIceLoad  vol(   0 ): 3.580E+14  Parms: SM      U1      
 Compute Stats, Diag. #    223  SIuice    vol(   0 ): 3.513E+14  Parms: UU      M1      
 Compute Stats, Diag. #    224  SIvice    vol(   0 ): 3.508E+14  Parms: VV      M1      
 Compute Stats, Diag. #    225  SItaux    vol(   0 ): 3.513E+14  Parms: UU      U1      
 Compute Stats, Diag. #    226  SItauy    vol(   0 ): 3.508E+14  Parms: VV      U1      
 cg2d: Sum(rhs),rhsMax =   2.04477676871927E+01  2.88428077208222E-01
(PID.TID 0000.0001)      cg2d_init_res =   5.47709434750771E-02
(PID.TID 0000.0001)      cg2d_iters(min,last) =      -1      26
(PID.TID 0000.0001)      cg2d_last_res =   2.09857527803314E-05
(PID.TID 0000.0001) // =======================================================
(PID.TID 0000.0001) // Begin MONITOR dynamic field statistics
(PID.TID 0000.0001) // =======================================================
(PID.TID 0000.0001) %MON time_tsnumber                =                   512
(PID.TID 0000.0001) %MON time_secondsf                =   4.6080000000000E+05
(PID.TID 0000.0001) %MON dynstat_eta_max              =   1.0369050690601E+00
(PID.TID 0000.0001) %MON dynstat_eta_min              =  -1.8398734108100E+00
(PID.TID 0000.0001) %MON dynstat_eta_mean             =  -6.4682819778269E-04
(PID.TID 0000.0001) %MON dynstat_eta_sd               =   6.3064388345620E-01
(PID.TID 0000.0001) %MON dynstat_eta_del2             =   5.6312306190101E-05
(PID.TID 0000.0001) %MON dynstat_uvel_max             =   7.9138066256493E-01
(PID.TID 0000.0001) %MON dynstat_uvel_min             =  -5.8196662398678E-01
(PID.TID 0000.0001) %MON dynstat_uvel_mean            =   1.2769368769874E-03
(PID.TID 0000.0001) %MON dynstat_uvel_sd              =   1.8510952735291E-02
(PID.TID 0000.0001) %MON dynstat_uvel_del2            =   7.5543363660203E-06
(PID.TID 0000.0001) %MON dynstat_vvel_max             =   8.7611262106413E-01
(PID.TID 0000.0001) %MON dynstat_vvel_min             =  -8.4673013861535E-01
(PID.TID 0000.0001) %MON dynstat_vvel_mean            =   1.0820287618985E-03
(PID.TID 0000.0001) %MON dynstat_vvel_sd              =   1.9901091940113E-02
(PID.TID 0000.0001) %MON dynstat_vvel_del2            =   7.6570245861761E-06
(PID.TID 0000.0001) %MON dynstat_wvel_max             =   3.3890766646574E-04
(PID.TID 0000.0001) %MON dynstat_wvel_min             =  -9.1115260578495E-04
(PID.TID 0000.0001) %MON dynstat_wvel_mean            =   9.3287892193571E-09
(PID.TID 0000.0001) %MON dynstat_wvel_sd              =   1.8347391034339E-05
(PID.TID 0000.0001) %MON dynstat_wvel_del2            =   1.4393319322798E-08
(PID.TID 0000.0001) %MON dynstat_theta_max            =   3.2267490685062E+01
(PID.TID 0000.0001) %MON dynstat_theta_min            =  -2.0830733604332E+00
(PID.TID 0000.0001) %MON dynstat_theta_mean           =   3.5903777112868E+00
(PID.TID 0000.0001) %MON dynstat_theta_sd             =   4.4365018830771E+00
(PID.TID 0000.0001) %MON dynstat_theta_del2           =   9.4427346461382E-05
(PID.TID 0000.0001) %MON dynstat_salt_max             =   4.0711554911666E+01
(PID.TID 0000.0001) %MON dynstat_salt_min             =   1.0045184705116E+01
(PID.TID 0000.0001) %MON dynstat_salt_mean            =   3.4725576953518E+01
(PID.TID 0000.0001) %MON dynstat_salt_sd              =   3.7701980972940E-01
(PID.TID 0000.0001) %MON dynstat_salt_del2            =   3.4592896665064E-05
(PID.TID 0000.0001) %MON dynstat_sst_max              =   3.2267490685062E+01
(PID.TID 0000.0001) %MON dynstat_sst_min              =  -1.8114075553723E+00
(PID.TID 0000.0001) %MON dynstat_sst_mean             =   1.8487515946127E+01
(PID.TID 0000.0001) %MON dynstat_sst_sd               =   1.0209273755167E+01
(PID.TID 0000.0001) %MON dynstat_sst_del2             =   8.1903427387110E-04
(PID.TID 0000.0001) %MON dynstat_sss_max              =   3.9110814163663E+01
(PID.TID 0000.0001) %MON dynstat_sss_min              =   1.0045184705116E+01
(PID.TID 0000.0001) %MON dynstat_sss_mean             =   3.4700100975014E+01
(PID.TID 0000.0001) %MON dynstat_sss_sd               =   1.1598952913957E+00
(PID.TID 0000.0001) %MON dynstat_sss_del2             =   1.0474501840834E-03
(PID.TID 0000.0001) %MON forcing_qnet_max             =   7.0393811035156E+02
(PID.TID 0000.0001) %MON forcing_qnet_min             =  -6.6680371505038E+02
(PID.TID 0000.0001) %MON forcing_qnet_mean            =   1.6629226297872E+01
(PID.TID 0000.0001) %MON forcing_qnet_sd              =   1.7645282642221E+02
(PID.TID 0000.0001) %MON forcing_qnet_del2            =   3.0867066381836E-01
(PID.TID 0000.0001) %MON forcing_qsw_max              =   0.0000000000000E+00
(PID.TID 0000.0001) %MON forcing_qsw_min              =  -1.0954931304979E+02
(PID.TID 0000.0001) %MON forcing_qsw_mean             =  -1.6727538549420E+01
(PID.TID 0000.0001) %MON forcing_qsw_sd               =   2.6360924578663E+01
(PID.TID 0000.0001) %MON forcing_qsw_del2             =   2.0868017100335E-02
(PID.TID 0000.0001) %MON forcing_empmr_max            =   8.5259333718568E-04
(PID.TID 0000.0001) %MON forcing_empmr_min            =  -7.2396799921989E-02
(PID.TID 0000.0001) %MON forcing_empmr_mean           =  -2.4649244700508E-06
(PID.TID 0000.0001) %MON forcing_empmr_sd             =   2.9161163326595E-04
(PID.TID 0000.0001) %MON forcing_empmr_del2           =   4.2369922072851E-06
(PID.TID 0000.0001) %MON forcing_fu_max               =   7.9926872253418E-01
(PID.TID 0000.0001) %MON forcing_fu_min               =  -7.7153185478318E-01
(PID.TID 0000.0001) %MON forcing_fu_mean              =   7.4496109072999E-03
(PID.TID 0000.0001) %MON forcing_fu_sd                =   1.0518871841599E-01
(PID.TID 0000.0001) %MON forcing_fu_del2              =   1.3597939155076E-04
(PID.TID 0000.0001) %MON forcing_fv_max               =   6.8118667602539E-01
(PID.TID 0000.0001) %MON forcing_fv_min               =  -6.5521690249443E-01
(PID.TID 0000.0001) %MON forcing_fv_mean              =  -7.1775605787560E-03
(PID.TID 0000.0001) %MON forcing_fv_sd                =   9.5950074951849E-02
(PID.TID 0000.0001) %MON forcing_fv_del2              =   1.1510509991287E-04
(PID.TID 0000.0001) %MON trAdv_CFL_u_max              =   1.0068560943239E-02
(PID.TID 0000.0001) %MON trAdv_CFL_v_max              =   1.5255249823116E-02
(PID.TID 0000.0001) %MON trAdv_CFL_w_max              =   2.0781515430146E-02
(PID.TID 0000.0001) %MON advcfl_uvel_max              =   8.7576979284029E-03
(PID.TID 0000.0001) %MON advcfl_vvel_max              =   1.5551791178431E-02
(PID.TID 0000.0001) %MON advcfl_wvel_max              =   1.7525561654886E-02
(PID.TID 0000.0001) %MON advcfl_W_hf_max              =   1.8374343021507E-02
(PID.TID 0000.0001) %MON pe_b_mean                    =   5.2315115252207E-04
(PID.TID 0000.0001) %MON ke_max                       =   3.7222324170880E-01
(PID.TID 0000.0001) %MON ke_mean                      =   3.5755327942279E-04
(PID.TID 0000.0001) %MON ke_vol                       =   1.3349976445940E+18
(PID.TID 0000.0001) %MON vort_r_min                   =  -1.6560886280081E-05
(PID.TID 0000.0001) %MON vort_r_max                   =   2.4655917813775E-05
(PID.TID 0000.0001) %MON vort_a_mean                  =  -1.9727864647440E-05
(PID.TID 0000.0001) %MON vort_a_sd                    =   7.4542946596316E-05
(PID.TID 0000.0001) %MON vort_p_mean                  =  -2.1760536626737E-05
(PID.TID 0000.0001) %MON vort_p_sd                    =   9.7246781795505E-05
(PID.TID 0000.0001) %MON surfExpan_theta_mean         =   2.8240492077717E-07
(PID.TID 0000.0001) %MON surfExpan_salt_mean          =   3.1976338778782E-08
(PID.TID 0000.0001) // =======================================================
(PID.TID 0000.0001) // End MONITOR dynamic field statistics
(PID.TID 0000.0001) // =======================================================
(PID.TID 0000.0001) // =======================================================
(PID.TID 0000.0001) // Begin MONITOR SEAICE statistics
(PID.TID 0000.0001) // =======================================================
(PID.TID 0000.0001) %MON seaice_tsnumber              =                   512
(PID.TID 0000.0001) %MON seaice_time_sec              =   4.6080000000000E+05
(PID.TID 0000.0001) %MON seaice_uice_max              =   4.0000000000000E-01
(PID.TID 0000.0001) %MON seaice_uice_min              =  -4.0000000000000E-01
(PID.TID 0000.0001) %MON seaice_uice_mean             =  -8.3054598624025E-03
(PID.TID 0000.0001) %MON seaice_uice_sd               =   1.9802383574176E-01
(PID.TID 0000.0001) %MON seaice_uice_del2             =   2.2931571122150E-04
(PID.TID 0000.0001) %MON seaice_vice_max              =   4.0000000000000E-01
(PID.TID 0000.0001) %MON seaice_vice_min              =  -4.0000000000000E-01
(PID.TID 0000.0001) %MON seaice_vice_mean             =  -2.1960776359499E-02
(PID.TID 0000.0001) %MON seaice_vice_sd               =   2.1302038025672E-01
(PID.TID 0000.0001) %MON seaice_vice_del2             =   2.3932563818061E-04
(PID.TID 0000.0001) %MON seaice_area_max              =   1.0000000000000E+00
(PID.TID 0000.0001) %MON seaice_area_min              =   0.0000000000000E+00
(PID.TID 0000.0001) %MON seaice_area_mean             =   6.6885080670432E-02
(PID.TID 0000.0001) %MON seaice_area_sd               =   2.3165409156237E-01
(PID.TID 0000.0001) %MON seaice_area_del2             =   4.0958490093933E-04
(PID.TID 0000.0001) %MON seaice_heff_max              =   2.5070660771336E+01
(PID.TID 0000.0001) %MON seaice_heff_min              =   0.0000000000000E+00
(PID.TID 0000.0001) %MON seaice_heff_mean             =   2.1372590107585E-01
(PID.TID 0000.0001) %MON seaice_heff_sd               =   1.0676728032710E+00
(PID.TID 0000.0001) %MON seaice_heff_del2             =   3.8646122008520E-03
(PID.TID 0000.0001) %MON seaice_hsnow_max             =   8.2806458745035E+00
(PID.TID 0000.0001) %MON seaice_hsnow_min             =   0.0000000000000E+00
(PID.TID 0000.0001) %MON seaice_hsnow_mean            =   2.4187271088122E-02
(PID.TID 0000.0001) %MON seaice_hsnow_sd              =   1.5655429093836E-01
(PID.TID 0000.0001) %MON seaice_hsnow_del2            =   1.2435672224813E-03
(PID.TID 0000.0001) // =======================================================
(PID.TID 0000.0001) // End MONITOR SEAICE statistics
(PID.TID 0000.0001) // =======================================================
 Computing Diagnostic #     86  oceQnet      Counter:       4   Parms: SM      U1      
 Computing Diagnostic #     87  oceQsw       Counter:       4   Parms: SM      U1      
 Computing Diagnostic #     84  oceFWflx     Counter:       4   Parms: SM      U1      
 Computing Diagnostic #     85  oceSflux     Counter:       4   Parms: SM      U1      
 Computing Diagnostic #     80  oceTAUX      Counter:       4   Parms: UU      U1      
           Vector  Mate for  oceTAUX      Diagnostic #     81  oceTAUY  exists 
 Computing Diagnostic #     81  oceTAUY      Counter:       4   Parms: VV      U1      
           Vector  Mate for  oceTAUY      Diagnostic #     80  oceTAUX  exists 
 Computing Diagnostic #     26  THETA        Counter:       4   Parms: SMR     MR      
 Computing Diagnostic #     27  SALT         Counter:       4   Parms: SMR     MR      
 Computing Diagnostic #     30  UVEL         Counter:       4   Parms: UUR     MR      
           Vector  Mate for  UVEL         Diagnostic #     31  VVEL     exists 
 Computing Diagnostic #     31  VVEL         Counter:       4   Parms: VVR     MR      
           Vector  Mate for  VVEL         Diagnostic #     30  UVEL     exists 
 Computing Diagnostic #    214  SIarea       Counter:       4   Parms: SM      M1      
 Computing Diagnostic #    217  SIheff       Counter:       4   Parms: SM      M1      
 Computing Diagnostic #    219  SIhsnow      Counter:       4   Parms: SM      M1      
 Computing Diagnostic #     83  sIceLoad     Counter:       4   Parms: SM      U1      
 Computing Diagnostic #    223  SIuice       Counter:       4   Parms: UU      M1      
           Vector  Mate for  SIuice       Diagnostic #    224  SIvice   exists 
 Computing Diagnostic #    224  SIvice       Counter:       4   Parms: VV      M1      
           Vector  Mate for  SIvice       Diagnostic #    223  SIuice   exists 
 Computing Diagnostic #    225  SItaux       Counter:       4   Parms: UU      U1      
           Vector  Mate for  SItaux       Diagnostic #    226  SItauy   exists 
 Computing Diagnostic #    226  SItauy       Counter:       4   Parms: VV      U1      
           Vector  Mate for  SItauy       Diagnostic #    225  SItaux   exists 
 Computing Diagnostic #    285  SIareaN      Counter:       4   Parms: SM      MX      
 Computing Diagnostic #    284  SIheffN      Counter:       4   Parms: SM      MX      
 Computing Diagnostic #    286  SIhsnowN     Counter:       4   Parms: SM      MX      
 Compute Stats, Diag. #    214  SIarea    vol(   0 ): 3.580E+14  Parms: SM      M1      
 Compute Stats, Diag. #    217  SIheff    vol(   0 ): 3.580E+14  Parms: SM      M1      
 Compute Stats, Diag. #    219  SIhsnow   vol(   0 ): 3.580E+14  Parms: SM      M1      
 Compute Stats, Diag. #     83  sIceLoad  vol(   0 ): 3.580E+14  Parms: SM      U1      
 Compute Stats, Diag. #    223  SIuice    vol(   0 ): 3.513E+14  Parms: UU      M1      
 Compute Stats, Diag. #    224  SIvice    vol(   0 ): 3.508E+14  Parms: VV      M1      
 Compute Stats, Diag. #    225  SItaux    vol(   0 ): 3.513E+14  Parms: UU      U1      
 Compute Stats, Diag. #    226  SItauy    vol(   0 ): 3.508E+14  Parms: VV      U1      
 cg2d: Sum(rhs),rhsMax =   2.03729306754291E+01  2.88431326228668E-01
 Compute Stats, Diag. #    214  SIarea    vol(   0 ): 3.580E+14  Parms: SM      M1      
 Compute Stats, Diag. #    217  SIheff    vol(   0 ): 3.580E+14  Parms: SM      M1      
 Compute Stats, Diag. #    219  SIhsnow   vol(   0 ): 3.580E+14  Parms: SM      M1      
 Compute Stats, Diag. #     83  sIceLoad  vol(   0 ): 3.580E+14  Parms: SM      U1      
 Compute Stats, Diag. #    223  SIuice    vol(   0 ): 3.513E+14  Parms: UU      M1      
 Compute Stats, Diag. #    224  SIvice    vol(   0 ): 3.508E+14  Parms: VV      M1      
 Compute Stats, Diag. #    225  SItaux    vol(   0 ): 3.513E+14  Parms: UU      U1      
 Compute Stats, Diag. #    226  SItauy    vol(   0 ): 3.508E+14  Parms: VV      U1      
 cg2d: Sum(rhs),rhsMax =   2.02939628308308E+01  2.88441930087273E-01
 Compute Stats, Diag. #    214  SIarea    vol(   0 ): 3.580E+14  Parms: SM      M1      
 Compute Stats, Diag. #    217  SIheff    vol(   0 ): 3.580E+14  Parms: SM      M1      
 Compute Stats, Diag. #    219  SIhsnow   vol(   0 ): 3.580E+14  Parms: SM      M1      
 Compute Stats, Diag. #     83  sIceLoad  vol(   0 ): 3.580E+14  Parms: SM      U1      
 Compute Stats, Diag. #    223  SIuice    vol(   0 ): 3.513E+14  Parms: UU      M1      
 Compute Stats, Diag. #    224  SIvice    vol(   0 ): 3.508E+14  Parms: VV      M1      
 Compute Stats, Diag. #    225  SItaux    vol(   0 ): 3.513E+14  Parms: UU      U1      
 Compute Stats, Diag. #    226  SItauy    vol(   0 ): 3.508E+14  Parms: VV      U1      
 cg2d: Sum(rhs),rhsMax =   2.02133926742584E+01  2.88460194583808E-01
 Compute Stats, Diag. #    214  SIarea    vol(   0 ): 3.580E+14  Parms: SM      M1      
 Compute Stats, Diag. #    217  SIheff    vol(   0 ): 3.580E+14  Parms: SM      M1      
 Compute Stats, Diag. #    219  SIhsnow   vol(   0 ): 3.580E+14  Parms: SM      M1      
 Compute Stats, Diag. #     83  sIceLoad  vol(   0 ): 3.580E+14  Parms: SM      U1      
 Compute Stats, Diag. #    223  SIuice    vol(   0 ): 3.513E+14  Parms: UU      M1      
 Compute Stats, Diag. #    224  SIvice    vol(   0 ): 3.508E+14  Parms: VV      M1      
 Compute Stats, Diag. #    225  SItaux    vol(   0 ): 3.513E+14  Parms: UU      U1      
 Compute Stats, Diag. #    226  SItauy    vol(   0 ): 3.508E+14  Parms: VV      U1      
 cg2d: Sum(rhs),rhsMax =   2.01283626527506E+01  2.88485850722845E-01
 Computing Diagnostic #     86  oceQnet      Counter:       4   Parms: SM      U1      
 Computing Diagnostic #     87  oceQsw       Counter:       4   Parms: SM      U1      
 Computing Diagnostic #     84  oceFWflx     Counter:       4   Parms: SM      U1      
 Computing Diagnostic #     85  oceSflux     Counter:       4   Parms: SM      U1      
 Computing Diagnostic #     80  oceTAUX      Counter:       4   Parms: UU      U1      
           Vector  Mate for  oceTAUX      Diagnostic #     81  oceTAUY  exists 
 Computing Diagnostic #     81  oceTAUY      Counter:       4   Parms: VV      U1      
           Vector  Mate for  oceTAUY      Diagnostic #     80  oceTAUX  exists 
 Computing Diagnostic #     26  THETA        Counter:       4   Parms: SMR     MR      
 Computing Diagnostic #     27  SALT         Counter:       4   Parms: SMR     MR      
 Computing Diagnostic #     30  UVEL         Counter:       4   Parms: UUR     MR      
           Vector  Mate for  UVEL         Diagnostic #     31  VVEL     exists 
 Computing Diagnostic #     31  VVEL         Counter:       4   Parms: VVR     MR      
           Vector  Mate for  VVEL         Diagnostic #     30  UVEL     exists 
 Computing Diagnostic #    214  SIarea       Counter:       4   Parms: SM      M1      
 Computing Diagnostic #    217  SIheff       Counter:       4   Parms: SM      M1      
 Computing Diagnostic #    219  SIhsnow      Counter:       4   Parms: SM      M1      
 Computing Diagnostic #     83  sIceLoad     Counter:       4   Parms: SM      U1      
 Computing Diagnostic #    223  SIuice       Counter:       4   Parms: UU      M1      
           Vector  Mate for  SIuice       Diagnostic #    224  SIvice   exists 
 Computing Diagnostic #    224  SIvice       Counter:       4   Parms: VV      M1      
           Vector  Mate for  SIvice       Diagnostic #    223  SIuice   exists 
 Computing Diagnostic #    225  SItaux       Counter:       4   Parms: UU      U1      
           Vector  Mate for  SItaux       Diagnostic #    226  SItauy   exists 
 Computing Diagnostic #    226  SItauy       Counter:       4   Parms: VV      U1      
           Vector  Mate for  SItauy       Diagnostic #    225  SItaux   exists 
 Computing Diagnostic #    285  SIareaN      Counter:       4   Parms: SM      MX      
 Computing Diagnostic #    284  SIheffN      Counter:       4   Parms: SM      MX      
 Computing Diagnostic #    286  SIhsnowN     Counter:       4   Parms: SM      MX      
 Compute Stats, Diag. #    214  SIarea    vol(   0 ): 3.580E+14  Parms: SM      M1      
 Compute Stats, Diag. #    217  SIheff    vol(   0 ): 3.580E+14  Parms: SM      M1      
 Compute Stats, Diag. #    219  SIhsnow   vol(   0 ): 3.580E+14  Parms: SM      M1      
 Compute Stats, Diag. #     83  sIceLoad  vol(   0 ): 3.580E+14  Parms: SM      U1      
 Compute Stats, Diag. #    223  SIuice    vol(   0 ): 3.513E+14  Parms: UU      M1      
 Compute Stats, Diag. #    224  SIvice    vol(   0 ): 3.508E+14  Parms: VV      M1      
 Compute Stats, Diag. #    225  SItaux    vol(   0 ): 3.513E+14  Parms: UU      U1      
 Compute Stats, Diag. #    226  SItauy    vol(   0 ): 3.508E+14  Parms: VV      U1      
 cg2d: Sum(rhs),rhsMax =   2.00361452757529E+01  2.88517474922927E-01
 Compute Stats, Diag. #    214  SIarea    vol(   0 ): 3.580E+14  Parms: SM      M1      
 Compute Stats, Diag. #    217  SIheff    vol(   0 ): 3.580E+14  Parms: SM      M1      
 Compute Stats, Diag. #    219  SIhsnow   vol(   0 ): 3.580E+14  Parms: SM      M1      
 Compute Stats, Diag. #     83  sIceLoad  vol(   0 ): 3.580E+14  Parms: SM      U1      
 Compute Stats, Diag. #    223  SIuice    vol(   0 ): 3.513E+14  Parms: UU      M1      
 Compute Stats, Diag. #    224  SIvice    vol(   0 ): 3.508E+14  Parms: VV      M1      
 Compute Stats, Diag. #    225  SItaux    vol(   0 ): 3.513E+14  Parms: UU      U1      
 Compute Stats, Diag. #    226  SItauy    vol(   0 ): 3.508E+14  Parms: VV      U1      
 cg2d: Sum(rhs),rhsMax =   1.99412133573811E+01  2.88555365526159E-01
 Compute Stats, Diag. #    214  SIarea    vol(   0 ): 3.580E+14  Parms: SM      M1      
 Compute Stats, Diag. #    217  SIheff    vol(   0 ): 3.580E+14  Parms: SM      M1      
 Compute Stats, Diag. #    219  SIhsnow   vol(   0 ): 3.580E+14  Parms: SM      M1      
 Compute Stats, Diag. #     83  sIceLoad  vol(   0 ): 3.580E+14  Parms: SM      U1      
 Compute Stats, Diag. #    223  SIuice    vol(   0 ): 3.513E+14  Parms: UU      M1      
 Compute Stats, Diag. #    224  SIvice    vol(   0 ): 3.508E+14  Parms: VV      M1      
 Compute Stats, Diag. #    225  SItaux    vol(   0 ): 3.513E+14  Parms: UU      U1      
 Compute Stats, Diag. #    226  SItauy    vol(   0 ): 3.508E+14  Parms: VV      U1      
 cg2d: Sum(rhs),rhsMax =   1.98417818323375E+01  2.88598269265083E-01
 Compute Stats, Diag. #    214  SIarea    vol(   0 ): 3.580E+14  Parms: SM      M1      
 Compute Stats, Diag. #    217  SIheff    vol(   0 ): 3.580E+14  Parms: SM      M1      
 Compute Stats, Diag. #    219  SIhsnow   vol(   0 ): 3.580E+14  Parms: SM      M1      
 Compute Stats, Diag. #     83  sIceLoad  vol(   0 ): 3.580E+14  Parms: SM      U1      
 Compute Stats, Diag. #    223  SIuice    vol(   0 ): 3.513E+14  Parms: UU      M1      
 Compute Stats, Diag. #    224  SIvice    vol(   0 ): 3.508E+14  Parms: VV      M1      
 Compute Stats, Diag. #    225  SItaux    vol(   0 ): 3.513E+14  Parms: UU      U1      
 Compute Stats, Diag. #    226  SItauy    vol(   0 ): 3.508E+14  Parms: VV      U1      
 cg2d: Sum(rhs),rhsMax =   1.97364888491117E+01  2.88645544019588E-01
(PID.TID 0000.0001)      cg2d_init_res =   5.43373588047084E-02
(PID.TID 0000.0001)      cg2d_iters(min,last) =      -1      25
(PID.TID 0000.0001)      cg2d_last_res =   2.45151629005490E-05
(PID.TID 0000.0001) // =======================================================
(PID.TID 0000.0001) // Begin MONITOR dynamic field statistics
(PID.TID 0000.0001) // =======================================================
(PID.TID 0000.0001) %MON time_tsnumber                =                   520
(PID.TID 0000.0001) %MON time_secondsf                =   4.6800000000000E+05
(PID.TID 0000.0001) %MON dynstat_eta_max              =   1.0383189507398E+00
(PID.TID 0000.0001) %MON dynstat_eta_min              =  -1.8402992664280E+00
(PID.TID 0000.0001) %MON dynstat_eta_mean             =  -6.2432817646044E-04
(PID.TID 0000.0001) %MON dynstat_eta_sd               =   6.3097288360997E-01
(PID.TID 0000.0001) %MON dynstat_eta_del2             =   5.6349131807845E-05
(PID.TID 0000.0001) %MON dynstat_uvel_max             =   7.8381689043558E-01
(PID.TID 0000.0001) %MON dynstat_uvel_min             =  -5.8676271182537E-01
(PID.TID 0000.0001) %MON dynstat_uvel_mean            =   1.2790431302402E-03
(PID.TID 0000.0001) %MON dynstat_uvel_sd              =   1.8498554434641E-02
(PID.TID 0000.0001) %MON dynstat_uvel_del2            =   7.5481034189631E-06
(PID.TID 0000.0001) %MON dynstat_vvel_max             =   8.7139745847094E-01
(PID.TID 0000.0001) %MON dynstat_vvel_min             =  -8.5146729825203E-01
(PID.TID 0000.0001) %MON dynstat_vvel_mean            =   1.1046760854587E-03
(PID.TID 0000.0001) %MON dynstat_vvel_sd              =   1.9862844356284E-02
(PID.TID 0000.0001) %MON dynstat_vvel_del2            =   7.6510853642617E-06
(PID.TID 0000.0001) %MON dynstat_wvel_max             =   3.6131910928484E-04
(PID.TID 0000.0001) %MON dynstat_wvel_min             =  -9.0998744380285E-04
(PID.TID 0000.0001) %MON dynstat_wvel_mean            =   6.6233191479224E-09
(PID.TID 0000.0001) %MON dynstat_wvel_sd              =   1.8305096971744E-05
(PID.TID 0000.0001) %MON dynstat_wvel_del2            =   1.4375116272038E-08
(PID.TID 0000.0001) %MON dynstat_theta_max            =   3.2273082979829E+01
(PID.TID 0000.0001) %MON dynstat_theta_min            =  -2.0813644699664E+00
(PID.TID 0000.0001) %MON dynstat_theta_mean           =   3.5903645223855E+00
(PID.TID 0000.0001) %MON dynstat_theta_sd             =   4.4364735193582E+00
(PID.TID 0000.0001) %MON dynstat_theta_del2           =   9.4326478371106E-05
(PID.TID 0000.0001) %MON dynstat_salt_max             =   4.0711554575850E+01
(PID.TID 0000.0001) %MON dynstat_salt_min             =   1.0050042433903E+01
(PID.TID 0000.0001) %MON dynstat_salt_mean            =   3.4725576773097E+01
(PID.TID 0000.0001) %MON dynstat_salt_sd              =   3.7702166353817E-01
(PID.TID 0000.0001) %MON dynstat_salt_del2            =   3.5112023534413E-05
(PID.TID 0000.0001) %MON dynstat_sst_max              =   3.2273082979829E+01
(PID.TID 0000.0001) %MON dynstat_sst_min              =  -1.8113322200580E+00
(PID.TID 0000.0001) %MON dynstat_sst_mean             =   1.8483610228753E+01
(PID.TID 0000.0001) %MON dynstat_sst_sd               =   1.0210155541908E+01
(PID.TID 0000.0001) %MON dynstat_sst_del2             =   8.1910589105509E-04
(PID.TID 0000.0001) %MON dynstat_sss_max              =   3.9110481980586E+01
(PID.TID 0000.0001) %MON dynstat_sss_min              =   1.0050042433903E+01
(PID.TID 0000.0001) %MON dynstat_sss_mean             =   3.4700079327945E+01
(PID.TID 0000.0001) %MON dynstat_sss_sd               =   1.1604096294964E+00
(PID.TID 0000.0001) %MON dynstat_sss_del2             =   1.0748960866344E-03
(PID.TID 0000.0001) %MON forcing_qnet_max             =   6.9563963687482E+02
(PID.TID 0000.0001) %MON forcing_qnet_min             =  -8.7553363477233E+02
(PID.TID 0000.0001) %MON forcing_qnet_mean            =   3.5268755829036E+01
(PID.TID 0000.0001) %MON forcing_qnet_sd              =   1.7392868688399E+02
(PID.TID 0000.0001) %MON forcing_qnet_del2            =   3.1496128443567E-01
(PID.TID 0000.0001) %MON forcing_qsw_max              =   0.0000000000000E+00
(PID.TID 0000.0001) %MON forcing_qsw_min              =  -1.0727490273478E+02
(PID.TID 0000.0001) %MON forcing_qsw_mean             =  -1.4587989844346E+01
(PID.TID 0000.0001) %MON forcing_qsw_sd               =   2.6563368437297E+01
(PID.TID 0000.0001) %MON forcing_qsw_del2             =   1.8874176823122E-02
(PID.TID 0000.0001) %MON forcing_empmr_max            =   1.1787923285738E-03
(PID.TID 0000.0001) %MON forcing_empmr_min            =  -1.2265471369028E-01
(PID.TID 0000.0001) %MON forcing_empmr_mean           =  -3.8081613220651E-06
(PID.TID 0000.0001) %MON forcing_empmr_sd             =   4.1215022378172E-04
(PID.TID 0000.0001) %MON forcing_empmr_del2           =   6.8022123376762E-06
(PID.TID 0000.0001) %MON forcing_fu_max               =   8.3663511276245E-01
(PID.TID 0000.0001) %MON forcing_fu_min               =  -7.8172240961184E-01
(PID.TID 0000.0001) %MON forcing_fu_mean              =   7.4460648211858E-03
(PID.TID 0000.0001) %MON forcing_fu_sd                =   1.0632721056582E-01
(PID.TID 0000.0001) %MON forcing_fu_del2              =   1.3990128557538E-04
(PID.TID 0000.0001) %MON forcing_fv_max               =   6.3934037089349E-01
(PID.TID 0000.0001) %MON forcing_fv_min               =  -6.4620289206505E-01
(PID.TID 0000.0001) %MON forcing_fv_mean              =  -8.2043520241106E-03
(PID.TID 0000.0001) %MON forcing_fv_sd                =   9.6691492290613E-02
(PID.TID 0000.0001) %MON forcing_fv_del2              =   1.1654737341268E-04
(PID.TID 0000.0001) %MON trAdv_CFL_u_max              =   1.0086792592071E-02
(PID.TID 0000.0001) %MON trAdv_CFL_v_max              =   1.5195527931545E-02
(PID.TID 0000.0001) %MON trAdv_CFL_w_max              =   2.0594282751544E-02
(PID.TID 0000.0001) %MON advcfl_uvel_max              =   8.7179575898189E-03
(PID.TID 0000.0001) %MON advcfl_vvel_max              =   1.5468092779094E-02
(PID.TID 0000.0001) %MON advcfl_wvel_max              =   2.1455635047863E-02
(PID.TID 0000.0001) %MON advcfl_W_hf_max              =   1.8251472695182E-02
(PID.TID 0000.0001) %MON pe_b_mean                    =   5.2369709840818E-04
(PID.TID 0000.0001) %MON ke_max                       =   3.6791247173270E-01
(PID.TID 0000.0001) %MON ke_mean                      =   3.5662506012921E-04
(PID.TID 0000.0001) %MON ke_vol                       =   1.3349976522287E+18
(PID.TID 0000.0001) %MON vort_r_min                   =  -1.6475797374439E-05
(PID.TID 0000.0001) %MON vort_r_max                   =   2.4526435989791E-05
(PID.TID 0000.0001) %MON vort_a_mean                  =  -1.9727864647440E-05
(PID.TID 0000.0001) %MON vort_a_sd                    =   7.4542954270909E-05
(PID.TID 0000.0001) %MON vort_p_mean                  =  -2.1760536607777E-05
(PID.TID 0000.0001) %MON vort_p_sd                    =   9.7246803650247E-05
(PID.TID 0000.0001) %MON surfExpan_theta_mean         =   3.1642688317606E-07
(PID.TID 0000.0001) %MON surfExpan_salt_mean          =   5.1162915343596E-08
(PID.TID 0000.0001) // =======================================================
(PID.TID 0000.0001) // End MONITOR dynamic field statistics
(PID.TID 0000.0001) // =======================================================
(PID.TID 0000.0001) // =======================================================
(PID.TID 0000.0001) // Begin MONITOR SEAICE statistics
(PID.TID 0000.0001) // =======================================================
(PID.TID 0000.0001) %MON seaice_tsnumber              =                   520
(PID.TID 0000.0001) %MON seaice_time_sec              =   4.6800000000000E+05
(PID.TID 0000.0001) %MON seaice_uice_max              =   4.0000000000000E-01
(PID.TID 0000.0001) %MON seaice_uice_min              =  -4.0000000000000E-01
(PID.TID 0000.0001) %MON seaice_uice_mean             =  -8.3054598624025E-03
(PID.TID 0000.0001) %MON seaice_uice_sd               =   1.9802383574176E-01
(PID.TID 0000.0001) %MON seaice_uice_del2             =   2.2931571122150E-04
(PID.TID 0000.0001) %MON seaice_vice_max              =   4.0000000000000E-01
(PID.TID 0000.0001) %MON seaice_vice_min              =  -4.0000000000000E-01
(PID.TID 0000.0001) %MON seaice_vice_mean             =  -2.1960776359499E-02
(PID.TID 0000.0001) %MON seaice_vice_sd               =   2.1302038025672E-01
(PID.TID 0000.0001) %MON seaice_vice_del2             =   2.3932563818061E-04
(PID.TID 0000.0001) %MON seaice_area_max              =   1.0000000000000E+00
(PID.TID 0000.0001) %MON seaice_area_min              =   0.0000000000000E+00
(PID.TID 0000.0001) %MON seaice_area_mean             =   6.6840271355189E-02
(PID.TID 0000.0001) %MON seaice_area_sd               =   2.3157519141566E-01
(PID.TID 0000.0001) %MON seaice_area_del2             =   4.0899767944598E-04
(PID.TID 0000.0001) %MON seaice_heff_max              =   2.5067531891633E+01
(PID.TID 0000.0001) %MON seaice_heff_min              =   0.0000000000000E+00
(PID.TID 0000.0001) %MON seaice_heff_mean             =   2.1368198525982E-01
(PID.TID 0000.0001) %MON seaice_heff_sd               =   1.0676298232468E+00
(PID.TID 0000.0001) %MON seaice_heff_del2             =   3.8638506134867E-03
(PID.TID 0000.0001) %MON seaice_hsnow_max             =   8.2796162337763E+00
(PID.TID 0000.0001) %MON seaice_hsnow_min             =   0.0000000000000E+00
(PID.TID 0000.0001) %MON seaice_hsnow_mean            =   2.4185204886389E-02
(PID.TID 0000.0001) %MON seaice_hsnow_sd              =   1.5654328430532E-01
(PID.TID 0000.0001) %MON seaice_hsnow_del2            =   1.2434303841714E-03
(PID.TID 0000.0001) // =======================================================
(PID.TID 0000.0001) // End MONITOR SEAICE statistics
(PID.TID 0000.0001) // =======================================================
 Computing Diagnostic #     86  oceQnet      Counter:       4   Parms: SM      U1      
 Computing Diagnostic #     87  oceQsw       Counter:       4   Parms: SM      U1      
 Computing Diagnostic #     84  oceFWflx     Counter:       4   Parms: SM      U1      
 Computing Diagnostic #     85  oceSflux     Counter:       4   Parms: SM      U1      
 Computing Diagnostic #     80  oceTAUX      Counter:       4   Parms: UU      U1      
           Vector  Mate for  oceTAUX      Diagnostic #     81  oceTAUY  exists 
 Computing Diagnostic #     81  oceTAUY      Counter:       4   Parms: VV      U1      
           Vector  Mate for  oceTAUY      Diagnostic #     80  oceTAUX  exists 
 Computing Diagnostic #     26  THETA        Counter:       4   Parms: SMR     MR      
 Computing Diagnostic #     27  SALT         Counter:       4   Parms: SMR     MR      
 Computing Diagnostic #     30  UVEL         Counter:       4   Parms: UUR     MR      
           Vector  Mate for  UVEL         Diagnostic #     31  VVEL     exists 
 Computing Diagnostic #     31  VVEL         Counter:       4   Parms: VVR     MR      
           Vector  Mate for  VVEL         Diagnostic #     30  UVEL     exists 
 Computing Diagnostic #    214  SIarea       Counter:       4   Parms: SM      M1      
 Computing Diagnostic #    217  SIheff       Counter:       4   Parms: SM      M1      
 Computing Diagnostic #    219  SIhsnow      Counter:       4   Parms: SM      M1      
 Computing Diagnostic #     83  sIceLoad     Counter:       4   Parms: SM      U1      
 Computing Diagnostic #    223  SIuice       Counter:       4   Parms: UU      M1      
           Vector  Mate for  SIuice       Diagnostic #    224  SIvice   exists 
 Computing Diagnostic #    224  SIvice       Counter:       4   Parms: VV      M1      
           Vector  Mate for  SIvice       Diagnostic #    223  SIuice   exists 
 Computing Diagnostic #    225  SItaux       Counter:       4   Parms: UU      U1      
           Vector  Mate for  SItaux       Diagnostic #    226  SItauy   exists 
 Computing Diagnostic #    226  SItauy       Counter:       4   Parms: VV      U1      
           Vector  Mate for  SItauy       Diagnostic #    225  SItaux   exists 
 Computing Diagnostic #    285  SIareaN      Counter:       4   Parms: SM      MX      
 Computing Diagnostic #    284  SIheffN      Counter:       4   Parms: SM      MX      
 Computing Diagnostic #    286  SIhsnowN     Counter:       4   Parms: SM      MX      
 Compute Stats, Diag. #    214  SIarea    vol(   0 ): 3.580E+14  Parms: SM      M1      
 Compute Stats, Diag. #    217  SIheff    vol(   0 ): 3.580E+14  Parms: SM      M1      
 Compute Stats, Diag. #    219  SIhsnow   vol(   0 ): 3.580E+14  Parms: SM      M1      
 Compute Stats, Diag. #     83  sIceLoad  vol(   0 ): 3.580E+14  Parms: SM      U1      
 Compute Stats, Diag. #    223  SIuice    vol(   0 ): 3.513E+14  Parms: UU      M1      
 Compute Stats, Diag. #    224  SIvice    vol(   0 ): 3.508E+14  Parms: VV      M1      
 Compute Stats, Diag. #    225  SItaux    vol(   0 ): 3.513E+14  Parms: UU      U1      
 Compute Stats, Diag. #    226  SItauy    vol(   0 ): 3.508E+14  Parms: VV      U1      
 cg2d: Sum(rhs),rhsMax =   1.96228759535855E+01  2.88696740340653E-01
 Compute Stats, Diag. #    214  SIarea    vol(   0 ): 3.580E+14  Parms: SM      M1      
 Compute Stats, Diag. #    217  SIheff    vol(   0 ): 3.580E+14  Parms: SM      M1      
 Compute Stats, Diag. #    219  SIhsnow   vol(   0 ): 3.580E+14  Parms: SM      M1      
 Compute Stats, Diag. #     83  sIceLoad  vol(   0 ): 3.580E+14  Parms: SM      U1      
 Compute Stats, Diag. #    223  SIuice    vol(   0 ): 3.513E+14  Parms: UU      M1      
 Compute Stats, Diag. #    224  SIvice    vol(   0 ): 3.508E+14  Parms: VV      M1      
 Compute Stats, Diag. #    225  SItaux    vol(   0 ): 3.513E+14  Parms: UU      U1      
 Compute Stats, Diag. #    226  SItauy    vol(   0 ): 3.508E+14  Parms: VV      U1      
 cg2d: Sum(rhs),rhsMax =   1.95159729848203E+01  2.88751371130491E-01
 Compute Stats, Diag. #    214  SIarea    vol(   0 ): 3.580E+14  Parms: SM      M1      
 Compute Stats, Diag. #    217  SIheff    vol(   0 ): 3.580E+14  Parms: SM      M1      
 Compute Stats, Diag. #    219  SIhsnow   vol(   0 ): 3.580E+14  Parms: SM      M1      
 Compute Stats, Diag. #     83  sIceLoad  vol(   0 ): 3.580E+14  Parms: SM      U1      
 Compute Stats, Diag. #    223  SIuice    vol(   0 ): 3.513E+14  Parms: UU      M1      
 Compute Stats, Diag. #    224  SIvice    vol(   0 ): 3.508E+14  Parms: VV      M1      
 Compute Stats, Diag. #    225  SItaux    vol(   0 ): 3.513E+14  Parms: UU      U1      
 Compute Stats, Diag. #    226  SItauy    vol(   0 ): 3.508E+14  Parms: VV      U1      
 cg2d: Sum(rhs),rhsMax =   1.94014011478344E+01  2.88808677072365E-01
 Compute Stats, Diag. #    214  SIarea    vol(   0 ): 3.580E+14  Parms: SM      M1      
 Compute Stats, Diag. #    217  SIheff    vol(   0 ): 3.580E+14  Parms: SM      M1      
 Compute Stats, Diag. #    219  SIhsnow   vol(   0 ): 3.580E+14  Parms: SM      M1      
 Compute Stats, Diag. #     83  sIceLoad  vol(   0 ): 3.580E+14  Parms: SM      U1      
 Compute Stats, Diag. #    223  SIuice    vol(   0 ): 3.513E+14  Parms: UU      M1      
 Compute Stats, Diag. #    224  SIvice    vol(   0 ): 3.508E+14  Parms: VV      M1      
 Compute Stats, Diag. #    225  SItaux    vol(   0 ): 3.513E+14  Parms: UU      U1      
 Compute Stats, Diag. #    226  SItauy    vol(   0 ): 3.508E+14  Parms: VV      U1      
 cg2d: Sum(rhs),rhsMax =   1.92810215625089E+01  2.88868324091634E-01
 Computing Diagnostic #     86  oceQnet      Counter:       4   Parms: SM      U1      
 Computing Diagnostic #     87  oceQsw       Counter:       4   Parms: SM      U1      
 Computing Diagnostic #     84  oceFWflx     Counter:       4   Parms: SM      U1      
 Computing Diagnostic #     85  oceSflux     Counter:       4   Parms: SM      U1      
 Computing Diagnostic #     80  oceTAUX      Counter:       4   Parms: UU      U1      
           Vector  Mate for  oceTAUX      Diagnostic #     81  oceTAUY  exists 
 Computing Diagnostic #     81  oceTAUY      Counter:       4   Parms: VV      U1      
           Vector  Mate for  oceTAUY      Diagnostic #     80  oceTAUX  exists 
 Computing Diagnostic #     26  THETA        Counter:       4   Parms: SMR     MR      
 Computing Diagnostic #     27  SALT         Counter:       4   Parms: SMR     MR      
 Computing Diagnostic #     30  UVEL         Counter:       4   Parms: UUR     MR      
           Vector  Mate for  UVEL         Diagnostic #     31  VVEL     exists 
 Computing Diagnostic #     31  VVEL         Counter:       4   Parms: VVR     MR      
           Vector  Mate for  VVEL         Diagnostic #     30  UVEL     exists 
 Computing Diagnostic #    214  SIarea       Counter:       4   Parms: SM      M1      
 Computing Diagnostic #    217  SIheff       Counter:       4   Parms: SM      M1      
 Computing Diagnostic #    219  SIhsnow      Counter:       4   Parms: SM      M1      
 Computing Diagnostic #     83  sIceLoad     Counter:       4   Parms: SM      U1      
 Computing Diagnostic #    223  SIuice       Counter:       4   Parms: UU      M1      
           Vector  Mate for  SIuice       Diagnostic #    224  SIvice   exists 
 Computing Diagnostic #    224  SIvice       Counter:       4   Parms: VV      M1      
           Vector  Mate for  SIvice       Diagnostic #    223  SIuice   exists 
 Computing Diagnostic #    225  SItaux       Counter:       4   Parms: UU      U1      
           Vector  Mate for  SItaux       Diagnostic #    226  SItauy   exists 
 Computing Diagnostic #    226  SItauy       Counter:       4   Parms: VV      U1      
           Vector  Mate for  SItauy       Diagnostic #    225  SItaux   exists 
 Computing Diagnostic #    285  SIareaN      Counter:       4   Parms: SM      MX      
 Computing Diagnostic #    284  SIheffN      Counter:       4   Parms: SM      MX      
 Computing Diagnostic #    286  SIhsnowN     Counter:       4   Parms: SM      MX      
 Compute Stats, Diag. #    214  SIarea    vol(   0 ): 3.580E+14  Parms: SM      M1      
 Compute Stats, Diag. #    217  SIheff    vol(   0 ): 3.580E+14  Parms: SM      M1      
 Compute Stats, Diag. #    219  SIhsnow   vol(   0 ): 3.580E+14  Parms: SM      M1      
 Compute Stats, Diag. #     83  sIceLoad  vol(   0 ): 3.580E+14  Parms: SM      U1      
 Compute Stats, Diag. #    223  SIuice    vol(   0 ): 3.513E+14  Parms: UU      M1      
 Compute Stats, Diag. #    224  SIvice    vol(   0 ): 3.508E+14  Parms: VV      M1      
 Compute Stats, Diag. #    225  SItaux    vol(   0 ): 3.513E+14  Parms: UU      U1      
 Compute Stats, Diag. #    226  SItauy    vol(   0 ): 3.508E+14  Parms: VV      U1      
 cg2d: Sum(rhs),rhsMax =   1.91593461606848E+01  2.88929803252747E-01
 Compute Stats, Diag. #    214  SIarea    vol(   0 ): 3.580E+14  Parms: SM      M1      
 Compute Stats, Diag. #    217  SIheff    vol(   0 ): 3.580E+14  Parms: SM      M1      
 Compute Stats, Diag. #    219  SIhsnow   vol(   0 ): 3.580E+14  Parms: SM      M1      
 Compute Stats, Diag. #     83  sIceLoad  vol(   0 ): 3.580E+14  Parms: SM      U1      
 Compute Stats, Diag. #    223  SIuice    vol(   0 ): 3.513E+14  Parms: UU      M1      
 Compute Stats, Diag. #    224  SIvice    vol(   0 ): 3.508E+14  Parms: VV      M1      
 Compute Stats, Diag. #    225  SItaux    vol(   0 ): 3.513E+14  Parms: UU      U1      
 Compute Stats, Diag. #    226  SItauy    vol(   0 ): 3.508E+14  Parms: VV      U1      
 cg2d: Sum(rhs),rhsMax =   1.90329026125539E+01  2.88992027736249E-01
 Compute Stats, Diag. #    214  SIarea    vol(   0 ): 3.580E+14  Parms: SM      M1      
 Compute Stats, Diag. #    217  SIheff    vol(   0 ): 3.580E+14  Parms: SM      M1      
 Compute Stats, Diag. #    219  SIhsnow   vol(   0 ): 3.580E+14  Parms: SM      M1      
 Compute Stats, Diag. #     83  sIceLoad  vol(   0 ): 3.580E+14  Parms: SM      U1      
 Compute Stats, Diag. #    223  SIuice    vol(   0 ): 3.513E+14  Parms: UU      M1      
 Compute Stats, Diag. #    224  SIvice    vol(   0 ): 3.508E+14  Parms: VV      M1      
 Compute Stats, Diag. #    225  SItaux    vol(   0 ): 3.513E+14  Parms: UU      U1      
 Compute Stats, Diag. #    226  SItauy    vol(   0 ): 3.508E+14  Parms: VV      U1      
 cg2d: Sum(rhs),rhsMax =   1.89017937631221E+01  2.89054729887282E-01
 Compute Stats, Diag. #    214  SIarea    vol(   0 ): 3.580E+14  Parms: SM      M1      
 Compute Stats, Diag. #    217  SIheff    vol(   0 ): 3.580E+14  Parms: SM      M1      
 Compute Stats, Diag. #    219  SIhsnow   vol(   0 ): 3.580E+14  Parms: SM      M1      
 Compute Stats, Diag. #     83  sIceLoad  vol(   0 ): 3.580E+14  Parms: SM      U1      
 Compute Stats, Diag. #    223  SIuice    vol(   0 ): 3.513E+14  Parms: UU      M1      
 Compute Stats, Diag. #    224  SIvice    vol(   0 ): 3.508E+14  Parms: VV      M1      
 Compute Stats, Diag. #    225  SItaux    vol(   0 ): 3.513E+14  Parms: UU      U1      
 Compute Stats, Diag. #    226  SItauy    vol(   0 ): 3.508E+14  Parms: VV      U1      
 cg2d: Sum(rhs),rhsMax =   1.87662160713588E+01  2.89117982968833E-01
(PID.TID 0000.0001)      cg2d_init_res =   5.21745482759190E-02
(PID.TID 0000.0001)      cg2d_iters(min,last) =      -1      25
(PID.TID 0000.0001)      cg2d_last_res =   2.33646551285036E-05
(PID.TID 0000.0001) // =======================================================
(PID.TID 0000.0001) // Begin MONITOR dynamic field statistics
(PID.TID 0000.0001) // =======================================================
(PID.TID 0000.0001) %MON time_tsnumber                =                   528
(PID.TID 0000.0001) %MON time_secondsf                =   4.7520000000000E+05
(PID.TID 0000.0001) %MON dynstat_eta_max              =   1.0392283620040E+00
(PID.TID 0000.0001) %MON dynstat_eta_min              =  -1.8417548177010E+00
(PID.TID 0000.0001) %MON dynstat_eta_mean             =  -5.9363534965446E-04
(PID.TID 0000.0001) %MON dynstat_eta_sd               =   6.3141881132518E-01
(PID.TID 0000.0001) %MON dynstat_eta_del2             =   5.6341678109189E-05
(PID.TID 0000.0001) %MON dynstat_uvel_max             =   7.7677078158838E-01
(PID.TID 0000.0001) %MON dynstat_uvel_min             =  -5.9175520317266E-01
(PID.TID 0000.0001) %MON dynstat_uvel_mean            =   1.2902869332484E-03
(PID.TID 0000.0001) %MON dynstat_uvel_sd              =   1.8486271678676E-02
(PID.TID 0000.0001) %MON dynstat_uvel_del2            =   7.5500502497777E-06
(PID.TID 0000.0001) %MON dynstat_vvel_max             =   8.6599631850749E-01
(PID.TID 0000.0001) %MON dynstat_vvel_min             =  -8.5535047478252E-01
(PID.TID 0000.0001) %MON dynstat_vvel_mean            =   1.1259775827453E-03
(PID.TID 0000.0001) %MON dynstat_vvel_sd              =   1.9817066489405E-02
(PID.TID 0000.0001) %MON dynstat_vvel_del2            =   7.6480653738060E-06
(PID.TID 0000.0001) %MON dynstat_wvel_max             =   3.7474760030932E-04
(PID.TID 0000.0001) %MON dynstat_wvel_min             =  -9.0225872096731E-04
(PID.TID 0000.0001) %MON dynstat_wvel_mean            =   4.9491625373680E-09
(PID.TID 0000.0001) %MON dynstat_wvel_sd              =   1.8278833384486E-05
(PID.TID 0000.0001) %MON dynstat_wvel_del2            =   1.4380143604955E-08
(PID.TID 0000.0001) %MON dynstat_theta_max            =   3.2276351325657E+01
(PID.TID 0000.0001) %MON dynstat_theta_min            =  -2.0794812646878E+00
(PID.TID 0000.0001) %MON dynstat_theta_mean           =   3.5903458893824E+00
(PID.TID 0000.0001) %MON dynstat_theta_sd             =   4.4364173959970E+00
(PID.TID 0000.0001) %MON dynstat_theta_del2           =   9.4226409009173E-05
(PID.TID 0000.0001) %MON dynstat_salt_max             =   4.0711554379506E+01
(PID.TID 0000.0001) %MON dynstat_salt_min             =   1.0046010412466E+01
(PID.TID 0000.0001) %MON dynstat_salt_mean            =   3.4725576512833E+01
(PID.TID 0000.0001) %MON dynstat_salt_sd              =   3.7702401183968E-01
(PID.TID 0000.0001) %MON dynstat_salt_del2            =   3.5877532835562E-05
(PID.TID 0000.0001) %MON dynstat_sst_max              =   3.2276351325657E+01
(PID.TID 0000.0001) %MON dynstat_sst_min              =  -1.8117921124958E+00
(PID.TID 0000.0001) %MON dynstat_sst_mean             =   1.8479221824491E+01
(PID.TID 0000.0001) %MON dynstat_sst_sd               =   1.0210343832484E+01
(PID.TID 0000.0001) %MON dynstat_sst_del2             =   8.1820296182139E-04
(PID.TID 0000.0001) %MON dynstat_sss_max              =   3.9110119063105E+01
(PID.TID 0000.0001) %MON dynstat_sss_min              =   1.0046010412466E+01
(PID.TID 0000.0001) %MON dynstat_sss_mean             =   3.4700069271648E+01
(PID.TID 0000.0001) %MON dynstat_sss_sd               =   1.1609909457812E+00
(PID.TID 0000.0001) %MON dynstat_sss_del2             =   1.1143856680788E-03
(PID.TID 0000.0001) %MON forcing_qnet_max             =   8.9947526405281E+02
(PID.TID 0000.0001) %MON forcing_qnet_min             =  -7.0434774436891E+02
(PID.TID 0000.0001) %MON forcing_qnet_mean            =   3.9535706986755E+01
(PID.TID 0000.0001) %MON forcing_qnet_sd              =   1.6645277098085E+02
(PID.TID 0000.0001) %MON forcing_qnet_del2            =   3.2129245531350E-01
(PID.TID 0000.0001) %MON forcing_qsw_max              =   0.0000000000000E+00
(PID.TID 0000.0001) %MON forcing_qsw_min              =  -1.1095999252252E+02
(PID.TID 0000.0001) %MON forcing_qsw_mean             =  -1.3712916440354E+01
(PID.TID 0000.0001) %MON forcing_qsw_sd               =   2.5014575864506E+01
(PID.TID 0000.0001) %MON forcing_qsw_del2             =   1.8920013768920E-02
(PID.TID 0000.0001) %MON forcing_empmr_max            =   1.3416884467006E-03
(PID.TID 0000.0001) %MON forcing_empmr_min            =  -1.2490759789944E-01
(PID.TID 0000.0001) %MON forcing_empmr_mean           =  -4.9034770037316E-06
(PID.TID 0000.0001) %MON forcing_empmr_sd             =   4.4905472278838E-04
(PID.TID 0000.0001) %MON forcing_empmr_del2           =   7.6470454750179E-06
(PID.TID 0000.0001) %MON forcing_fu_max               =   1.0378113389015E+00
(PID.TID 0000.0001) %MON forcing_fu_min               =  -8.3283114433289E-01
(PID.TID 0000.0001) %MON forcing_fu_mean              =   6.9262262487237E-03
(PID.TID 0000.0001) %MON forcing_fu_sd                =   1.0743022550101E-01
(PID.TID 0000.0001) %MON forcing_fu_del2              =   1.4384192788036E-04
(PID.TID 0000.0001) %MON forcing_fv_max               =   6.4349886775018E-01
(PID.TID 0000.0001) %MON forcing_fv_min               =  -6.2865370512009E-01
(PID.TID 0000.0001) %MON forcing_fv_mean              =  -8.5545649898528E-03
(PID.TID 0000.0001) %MON forcing_fv_sd                =   9.7262707819240E-02
(PID.TID 0000.0001) %MON forcing_fv_del2              =   1.1823403105614E-04
(PID.TID 0000.0001) %MON trAdv_CFL_u_max              =   1.0841857507527E-02
(PID.TID 0000.0001) %MON trAdv_CFL_v_max              =   1.5120823094031E-02
(PID.TID 0000.0001) %MON trAdv_CFL_w_max              =   2.0404686913792E-02
(PID.TID 0000.0001) %MON advcfl_uvel_max              =   8.6492097688255E-03
(PID.TID 0000.0001) %MON advcfl_vvel_max              =   1.5372217661196E-02
(PID.TID 0000.0001) %MON advcfl_wvel_max              =   2.1849725580076E-02
(PID.TID 0000.0001) %MON advcfl_W_hf_max              =   1.8122957448481E-02
(PID.TID 0000.0001) %MON pe_b_mean                    =   5.2443753121215E-04
(PID.TID 0000.0001) %MON ke_max                       =   3.6662999437127E-01
(PID.TID 0000.0001) %MON ke_mean                      =   3.5556686169905E-04
(PID.TID 0000.0001) %MON ke_vol                       =   1.3349976628742E+18
(PID.TID 0000.0001) %MON vort_r_min                   =  -1.6405713061391E-05
(PID.TID 0000.0001) %MON vort_r_max                   =   2.4390779743149E-05
(PID.TID 0000.0001) %MON vort_a_mean                  =  -1.9727864647440E-05
(PID.TID 0000.0001) %MON vort_a_sd                    =   7.4542962179432E-05
(PID.TID 0000.0001) %MON vort_p_mean                  =  -2.1760536534907E-05
(PID.TID 0000.0001) %MON vort_p_sd                    =   9.7246823496273E-05
(PID.TID 0000.0001) %MON surfExpan_theta_mean         =   3.1252725700453E-07
(PID.TID 0000.0001) %MON surfExpan_salt_mean          =   6.2052941408878E-08
(PID.TID 0000.0001) // =======================================================
(PID.TID 0000.0001) // End MONITOR dynamic field statistics
(PID.TID 0000.0001) // =======================================================
(PID.TID 0000.0001) // =======================================================
(PID.TID 0000.0001) // Begin MONITOR SEAICE statistics
(PID.TID 0000.0001) // =======================================================
(PID.TID 0000.0001) %MON seaice_tsnumber              =                   528
(PID.TID 0000.0001) %MON seaice_time_sec              =   4.7520000000000E+05
(PID.TID 0000.0001) %MON seaice_uice_max              =   4.0000000000000E-01
(PID.TID 0000.0001) %MON seaice_uice_min              =  -4.0000000000000E-01
(PID.TID 0000.0001) %MON seaice_uice_mean             =  -8.3054598624025E-03
(PID.TID 0000.0001) %MON seaice_uice_sd               =   1.9802383574176E-01
(PID.TID 0000.0001) %MON seaice_uice_del2             =   2.2931571122150E-04
(PID.TID 0000.0001) %MON seaice_vice_max              =   4.0000000000000E-01
(PID.TID 0000.0001) %MON seaice_vice_min              =  -4.0000000000000E-01
(PID.TID 0000.0001) %MON seaice_vice_mean             =  -2.1960776359499E-02
(PID.TID 0000.0001) %MON seaice_vice_sd               =   2.1302038025672E-01
(PID.TID 0000.0001) %MON seaice_vice_del2             =   2.3932563818061E-04
(PID.TID 0000.0001) %MON seaice_area_max              =   1.0000000000000E+00
(PID.TID 0000.0001) %MON seaice_area_min              =   0.0000000000000E+00
(PID.TID 0000.0001) %MON seaice_area_mean             =   6.6801264307975E-02
(PID.TID 0000.0001) %MON seaice_area_sd               =   2.3150759503132E-01
(PID.TID 0000.0001) %MON seaice_area_del2             =   4.0836135256060E-04
(PID.TID 0000.0001) %MON seaice_heff_max              =   2.5064292676747E+01
(PID.TID 0000.0001) %MON seaice_heff_min              =   0.0000000000000E+00
(PID.TID 0000.0001) %MON seaice_heff_mean             =   2.1364091836348E-01
(PID.TID 0000.0001) %MON seaice_heff_sd               =   1.0675872745766E+00
(PID.TID 0000.0001) %MON seaice_heff_del2             =   3.8630618326910E-03
(PID.TID 0000.0001) %MON seaice_hsnow_max             =   8.2785487050423E+00
(PID.TID 0000.0001) %MON seaice_hsnow_min             =   0.0000000000000E+00
(PID.TID 0000.0001) %MON seaice_hsnow_mean            =   2.4184227051751E-02
(PID.TID 0000.0001) %MON seaice_hsnow_sd              =   1.5653283240123E-01
(PID.TID 0000.0001) %MON seaice_hsnow_del2            =   1.2432900646718E-03
(PID.TID 0000.0001) // =======================================================
(PID.TID 0000.0001) // End MONITOR SEAICE statistics
(PID.TID 0000.0001) // =======================================================
 Computing Diagnostic #     86  oceQnet      Counter:       4   Parms: SM      U1      
 Computing Diagnostic #     87  oceQsw       Counter:       4   Parms: SM      U1      
 Computing Diagnostic #     84  oceFWflx     Counter:       4   Parms: SM      U1      
 Computing Diagnostic #     85  oceSflux     Counter:       4   Parms: SM      U1      
 Computing Diagnostic #     80  oceTAUX      Counter:       4   Parms: UU      U1      
           Vector  Mate for  oceTAUX      Diagnostic #     81  oceTAUY  exists 
 Computing Diagnostic #     81  oceTAUY      Counter:       4   Parms: VV      U1      
           Vector  Mate for  oceTAUY      Diagnostic #     80  oceTAUX  exists 
 Computing Diagnostic #     26  THETA        Counter:       4   Parms: SMR     MR      
 Computing Diagnostic #     27  SALT         Counter:       4   Parms: SMR     MR      
 Computing Diagnostic #     30  UVEL         Counter:       4   Parms: UUR     MR      
           Vector  Mate for  UVEL         Diagnostic #     31  VVEL     exists 
 Computing Diagnostic #     31  VVEL         Counter:       4   Parms: VVR     MR      
           Vector  Mate for  VVEL         Diagnostic #     30  UVEL     exists 
 Computing Diagnostic #    214  SIarea       Counter:       4   Parms: SM      M1      
 Computing Diagnostic #    217  SIheff       Counter:       4   Parms: SM      M1      
 Computing Diagnostic #    219  SIhsnow      Counter:       4   Parms: SM      M1      
 Computing Diagnostic #     83  sIceLoad     Counter:       4   Parms: SM      U1      
 Computing Diagnostic #    223  SIuice       Counter:       4   Parms: UU      M1      
           Vector  Mate for  SIuice       Diagnostic #    224  SIvice   exists 
 Computing Diagnostic #    224  SIvice       Counter:       4   Parms: VV      M1      
           Vector  Mate for  SIvice       Diagnostic #    223  SIuice   exists 
 Computing Diagnostic #    225  SItaux       Counter:       4   Parms: UU      U1      
           Vector  Mate for  SItaux       Diagnostic #    226  SItauy   exists 
 Computing Diagnostic #    226  SItauy       Counter:       4   Parms: VV      U1      
           Vector  Mate for  SItauy       Diagnostic #    225  SItaux   exists 
 Computing Diagnostic #    285  SIareaN      Counter:       4   Parms: SM      MX      
 Computing Diagnostic #    284  SIheffN      Counter:       4   Parms: SM      MX      
 Computing Diagnostic #    286  SIhsnowN     Counter:       4   Parms: SM      MX      
 Compute Stats, Diag. #    214  SIarea    vol(   0 ): 3.580E+14  Parms: SM      M1      
 Compute Stats, Diag. #    217  SIheff    vol(   0 ): 3.580E+14  Parms: SM      M1      
 Compute Stats, Diag. #    219  SIhsnow   vol(   0 ): 3.580E+14  Parms: SM      M1      
 Compute Stats, Diag. #     83  sIceLoad  vol(   0 ): 3.580E+14  Parms: SM      U1      
 Compute Stats, Diag. #    223  SIuice    vol(   0 ): 3.513E+14  Parms: UU      M1      
 Compute Stats, Diag. #    224  SIvice    vol(   0 ): 3.508E+14  Parms: VV      M1      
 Compute Stats, Diag. #    225  SItaux    vol(   0 ): 3.513E+14  Parms: UU      U1      
 Compute Stats, Diag. #    226  SItauy    vol(   0 ): 3.508E+14  Parms: VV      U1      
 cg2d: Sum(rhs),rhsMax =   1.86293759274518E+01  2.89181170595604E-01
 Compute Stats, Diag. #    214  SIarea    vol(   0 ): 3.580E+14  Parms: SM      M1      
 Compute Stats, Diag. #    217  SIheff    vol(   0 ): 3.580E+14  Parms: SM      M1      
 Compute Stats, Diag. #    219  SIhsnow   vol(   0 ): 3.580E+14  Parms: SM      M1      
 Compute Stats, Diag. #     83  sIceLoad  vol(   0 ): 3.580E+14  Parms: SM      U1      
 Compute Stats, Diag. #    223  SIuice    vol(   0 ): 3.513E+14  Parms: UU      M1      
 Compute Stats, Diag. #    224  SIvice    vol(   0 ): 3.508E+14  Parms: VV      M1      
 Compute Stats, Diag. #    225  SItaux    vol(   0 ): 3.513E+14  Parms: UU      U1      
 Compute Stats, Diag. #    226  SItauy    vol(   0 ): 3.508E+14  Parms: VV      U1      
 cg2d: Sum(rhs),rhsMax =   1.84968986935497E+01  2.89244106591189E-01
 Compute Stats, Diag. #    214  SIarea    vol(   0 ): 3.580E+14  Parms: SM      M1      
 Compute Stats, Diag. #    217  SIheff    vol(   0 ): 3.580E+14  Parms: SM      M1      
 Compute Stats, Diag. #    219  SIhsnow   vol(   0 ): 3.580E+14  Parms: SM      M1      
 Compute Stats, Diag. #     83  sIceLoad  vol(   0 ): 3.580E+14  Parms: SM      U1      
 Compute Stats, Diag. #    223  SIuice    vol(   0 ): 3.513E+14  Parms: UU      M1      
 Compute Stats, Diag. #    224  SIvice    vol(   0 ): 3.508E+14  Parms: VV      M1      
 Compute Stats, Diag. #    225  SItaux    vol(   0 ): 3.513E+14  Parms: UU      U1      
 Compute Stats, Diag. #    226  SItauy    vol(   0 ): 3.508E+14  Parms: VV      U1      
 cg2d: Sum(rhs),rhsMax =   1.83585510169271E+01  2.89306797138788E-01
 Compute Stats, Diag. #    214  SIarea    vol(   0 ): 3.580E+14  Parms: SM      M1      
 Compute Stats, Diag. #    217  SIheff    vol(   0 ): 3.580E+14  Parms: SM      M1      
 Compute Stats, Diag. #    219  SIhsnow   vol(   0 ): 3.580E+14  Parms: SM      M1      
 Compute Stats, Diag. #     83  sIceLoad  vol(   0 ): 3.580E+14  Parms: SM      U1      
 Compute Stats, Diag. #    223  SIuice    vol(   0 ): 3.513E+14  Parms: UU      M1      
 Compute Stats, Diag. #    224  SIvice    vol(   0 ): 3.508E+14  Parms: VV      M1      
 Compute Stats, Diag. #    225  SItaux    vol(   0 ): 3.513E+14  Parms: UU      U1      
 Compute Stats, Diag. #    226  SItauy    vol(   0 ): 3.508E+14  Parms: VV      U1      
 cg2d: Sum(rhs),rhsMax =   1.82149554959704E+01  2.89369217886683E-01
 Computing Diagnostic #     86  oceQnet      Counter:       4   Parms: SM      U1      
 Computing Diagnostic #     87  oceQsw       Counter:       4   Parms: SM      U1      
 Computing Diagnostic #     84  oceFWflx     Counter:       4   Parms: SM      U1      
 Computing Diagnostic #     85  oceSflux     Counter:       4   Parms: SM      U1      
 Computing Diagnostic #     80  oceTAUX      Counter:       4   Parms: UU      U1      
           Vector  Mate for  oceTAUX      Diagnostic #     81  oceTAUY  exists 
 Computing Diagnostic #     81  oceTAUY      Counter:       4   Parms: VV      U1      
           Vector  Mate for  oceTAUY      Diagnostic #     80  oceTAUX  exists 
 Computing Diagnostic #     26  THETA        Counter:       4   Parms: SMR     MR      
 Computing Diagnostic #     27  SALT         Counter:       4   Parms: SMR     MR      
 Computing Diagnostic #     30  UVEL         Counter:       4   Parms: UUR     MR      
           Vector  Mate for  UVEL         Diagnostic #     31  VVEL     exists 
 Computing Diagnostic #     31  VVEL         Counter:       4   Parms: VVR     MR      
           Vector  Mate for  VVEL         Diagnostic #     30  UVEL     exists 
 Computing Diagnostic #    214  SIarea       Counter:       4   Parms: SM      M1      
 Computing Diagnostic #    217  SIheff       Counter:       4   Parms: SM      M1      
 Computing Diagnostic #    219  SIhsnow      Counter:       4   Parms: SM      M1      
 Computing Diagnostic #     83  sIceLoad     Counter:       4   Parms: SM      U1      
 Computing Diagnostic #    223  SIuice       Counter:       4   Parms: UU      M1      
           Vector  Mate for  SIuice       Diagnostic #    224  SIvice   exists 
 Computing Diagnostic #    224  SIvice       Counter:       4   Parms: VV      M1      
           Vector  Mate for  SIvice       Diagnostic #    223  SIuice   exists 
 Computing Diagnostic #    225  SItaux       Counter:       4   Parms: UU      U1      
           Vector  Mate for  SItaux       Diagnostic #    226  SItauy   exists 
 Computing Diagnostic #    226  SItauy       Counter:       4   Parms: VV      U1      
           Vector  Mate for  SItauy       Diagnostic #    225  SItaux   exists 
 Computing Diagnostic #    285  SIareaN      Counter:       4   Parms: SM      MX      
 Computing Diagnostic #    284  SIheffN      Counter:       4   Parms: SM      MX      
 Computing Diagnostic #    286  SIhsnowN     Counter:       4   Parms: SM      MX      
 Compute Stats, Diag. #    214  SIarea    vol(   0 ): 3.580E+14  Parms: SM      M1      
 Compute Stats, Diag. #    217  SIheff    vol(   0 ): 3.580E+14  Parms: SM      M1      
 Compute Stats, Diag. #    219  SIhsnow   vol(   0 ): 3.580E+14  Parms: SM      M1      
 Compute Stats, Diag. #     83  sIceLoad  vol(   0 ): 3.580E+14  Parms: SM      U1      
 Compute Stats, Diag. #    223  SIuice    vol(   0 ): 3.513E+14  Parms: UU      M1      
 Compute Stats, Diag. #    224  SIvice    vol(   0 ): 3.508E+14  Parms: VV      M1      
 Compute Stats, Diag. #    225  SItaux    vol(   0 ): 3.513E+14  Parms: UU      U1      
 Compute Stats, Diag. #    226  SItauy    vol(   0 ): 3.508E+14  Parms: VV      U1      
 cg2d: Sum(rhs),rhsMax =   1.80682937082053E+01  2.89431187907771E-01
 Compute Stats, Diag. #    214  SIarea    vol(   0 ): 3.580E+14  Parms: SM      M1      
 Compute Stats, Diag. #    217  SIheff    vol(   0 ): 3.580E+14  Parms: SM      M1      
 Compute Stats, Diag. #    219  SIhsnow   vol(   0 ): 3.580E+14  Parms: SM      M1      
 Compute Stats, Diag. #     83  sIceLoad  vol(   0 ): 3.580E+14  Parms: SM      U1      
 Compute Stats, Diag. #    223  SIuice    vol(   0 ): 3.513E+14  Parms: UU      M1      
 Compute Stats, Diag. #    224  SIvice    vol(   0 ): 3.508E+14  Parms: VV      M1      
 Compute Stats, Diag. #    225  SItaux    vol(   0 ): 3.513E+14  Parms: UU      U1      
 Compute Stats, Diag. #    226  SItauy    vol(   0 ): 3.508E+14  Parms: VV      U1      
 cg2d: Sum(rhs),rhsMax =   1.79250864472109E+01  2.89492540337542E-01
 Compute Stats, Diag. #    214  SIarea    vol(   0 ): 3.580E+14  Parms: SM      M1      
 Compute Stats, Diag. #    217  SIheff    vol(   0 ): 3.580E+14  Parms: SM      M1      
 Compute Stats, Diag. #    219  SIhsnow   vol(   0 ): 3.580E+14  Parms: SM      M1      
 Compute Stats, Diag. #     83  sIceLoad  vol(   0 ): 3.580E+14  Parms: SM      U1      
 Compute Stats, Diag. #    223  SIuice    vol(   0 ): 3.513E+14  Parms: UU      M1      
 Compute Stats, Diag. #    224  SIvice    vol(   0 ): 3.508E+14  Parms: VV      M1      
 Compute Stats, Diag. #    225  SItaux    vol(   0 ): 3.513E+14  Parms: UU      U1      
 Compute Stats, Diag. #    226  SItauy    vol(   0 ): 3.508E+14  Parms: VV      U1      
 cg2d: Sum(rhs),rhsMax =   1.77855884154074E+01  2.89553663063571E-01
 Compute Stats, Diag. #    214  SIarea    vol(   0 ): 3.580E+14  Parms: SM      M1      
 Compute Stats, Diag. #    217  SIheff    vol(   0 ): 3.580E+14  Parms: SM      M1      
 Compute Stats, Diag. #    219  SIhsnow   vol(   0 ): 3.580E+14  Parms: SM      M1      
 Compute Stats, Diag. #     83  sIceLoad  vol(   0 ): 3.580E+14  Parms: SM      U1      
 Compute Stats, Diag. #    223  SIuice    vol(   0 ): 3.513E+14  Parms: UU      M1      
 Compute Stats, Diag. #    224  SIvice    vol(   0 ): 3.508E+14  Parms: VV      M1      
 Compute Stats, Diag. #    225  SItaux    vol(   0 ): 3.513E+14  Parms: UU      U1      
 Compute Stats, Diag. #    226  SItauy    vol(   0 ): 3.508E+14  Parms: VV      U1      
 cg2d: Sum(rhs),rhsMax =   1.76428043017764E+01  2.89619593176371E-01
(PID.TID 0000.0001)      cg2d_init_res =   5.05867827298926E-02
(PID.TID 0000.0001)      cg2d_iters(min,last) =      -1      25
(PID.TID 0000.0001)      cg2d_last_res =   2.62026062297950E-05
(PID.TID 0000.0001) // =======================================================
(PID.TID 0000.0001) // Begin MONITOR dynamic field statistics
(PID.TID 0000.0001) // =======================================================
(PID.TID 0000.0001) %MON time_tsnumber                =                   536
(PID.TID 0000.0001) %MON time_secondsf                =   4.8240000000000E+05
(PID.TID 0000.0001) %MON dynstat_eta_max              =   1.0400787428160E+00
(PID.TID 0000.0001) %MON dynstat_eta_min              =  -1.8442232732931E+00
(PID.TID 0000.0001) %MON dynstat_eta_mean             =  -5.5809824744348E-04
(PID.TID 0000.0001) %MON dynstat_eta_sd               =   6.3192212205478E-01
(PID.TID 0000.0001) %MON dynstat_eta_del2             =   5.6207695985623E-05
(PID.TID 0000.0001) %MON dynstat_uvel_max             =   7.7295285813458E-01
(PID.TID 0000.0001) %MON dynstat_uvel_min             =  -5.9701000794683E-01
(PID.TID 0000.0001) %MON dynstat_uvel_mean            =   1.3102854113145E-03
(PID.TID 0000.0001) %MON dynstat_uvel_sd              =   1.8473400309457E-02
(PID.TID 0000.0001) %MON dynstat_uvel_del2            =   7.5552874355873E-06
(PID.TID 0000.0001) %MON dynstat_vvel_max             =   8.6439592657491E-01
(PID.TID 0000.0001) %MON dynstat_vvel_min             =  -8.5809294947532E-01
(PID.TID 0000.0001) %MON dynstat_vvel_mean            =   1.1481493984535E-03
(PID.TID 0000.0001) %MON dynstat_vvel_sd              =   1.9769410246465E-02
(PID.TID 0000.0001) %MON dynstat_vvel_del2            =   7.6455331282348E-06
(PID.TID 0000.0001) %MON dynstat_wvel_max             =   3.7638375898887E-04
(PID.TID 0000.0001) %MON dynstat_wvel_min             =  -8.8846985245879E-04
(PID.TID 0000.0001) %MON dynstat_wvel_mean            =   5.6028658756319E-09
(PID.TID 0000.0001) %MON dynstat_wvel_sd              =   1.8236517395371E-05
(PID.TID 0000.0001) %MON dynstat_wvel_del2            =   1.4406872465602E-08
(PID.TID 0000.0001) %MON dynstat_theta_max            =   3.2276979137970E+01
(PID.TID 0000.0001) %MON dynstat_theta_min            =  -2.0773816781923E+00
(PID.TID 0000.0001) %MON dynstat_theta_mean           =   3.5903297576702E+00
(PID.TID 0000.0001) %MON dynstat_theta_sd             =   4.4363655342516E+00
(PID.TID 0000.0001) %MON dynstat_theta_del2           =   9.4122139757025E-05
(PID.TID 0000.0001) %MON dynstat_salt_max             =   4.0711554367503E+01
(PID.TID 0000.0001) %MON dynstat_salt_min             =   1.0072879785734E+01
(PID.TID 0000.0001) %MON dynstat_salt_mean            =   3.4725576214808E+01
(PID.TID 0000.0001) %MON dynstat_salt_sd              =   3.7702598859339E-01
(PID.TID 0000.0001) %MON dynstat_salt_del2            =   3.6554448975821E-05
(PID.TID 0000.0001) %MON dynstat_sst_max              =   3.2276979137970E+01
(PID.TID 0000.0001) %MON dynstat_sst_min              =  -1.8144390711087E+00
(PID.TID 0000.0001) %MON dynstat_sst_mean             =   1.8475797288339E+01
(PID.TID 0000.0001) %MON dynstat_sst_sd               =   1.0210380792336E+01
(PID.TID 0000.0001) %MON dynstat_sst_del2             =   8.1621827527119E-04
(PID.TID 0000.0001) %MON dynstat_sss_max              =   3.9109736291475E+01
(PID.TID 0000.0001) %MON dynstat_sss_min              =   1.0072879785734E+01
(PID.TID 0000.0001) %MON dynstat_sss_mean             =   3.4700057998021E+01
(PID.TID 0000.0001) %MON dynstat_sss_sd               =   1.1615262707017E+00
(PID.TID 0000.0001) %MON dynstat_sss_del2             =   1.1491889927077E-03
(PID.TID 0000.0001) %MON forcing_qnet_max             =   6.1605578598454E+02
(PID.TID 0000.0001) %MON forcing_qnet_min             =  -7.4057625189029E+02
(PID.TID 0000.0001) %MON forcing_qnet_mean            =   2.9518443225842E+01
(PID.TID 0000.0001) %MON forcing_qnet_sd              =   1.6554447158092E+02
(PID.TID 0000.0001) %MON forcing_qnet_del2            =   3.1347899932193E-01
(PID.TID 0000.0001) %MON forcing_qsw_max              =   0.0000000000000E+00
(PID.TID 0000.0001) %MON forcing_qsw_min              =  -9.9656935036733E+01
(PID.TID 0000.0001) %MON forcing_qsw_mean             =  -1.4707611614753E+01
(PID.TID 0000.0001) %MON forcing_qsw_sd               =   2.4726825930691E+01
(PID.TID 0000.0001) %MON forcing_qsw_del2             =   2.0424761437762E-02
(PID.TID 0000.0001) %MON forcing_empmr_max            =   1.3494194718078E-03
(PID.TID 0000.0001) %MON forcing_empmr_min            =  -1.1128316074610E-01
(PID.TID 0000.0001) %MON forcing_empmr_mean           =  -5.1641137164377E-06
(PID.TID 0000.0001) %MON forcing_empmr_sd             =   3.8623165048852E-04
(PID.TID 0000.0001) %MON forcing_empmr_del2           =   6.4203855429122E-06
(PID.TID 0000.0001) %MON forcing_fu_max               =   1.1018312573433E+00
(PID.TID 0000.0001) %MON forcing_fu_min               =  -8.7856277823448E-01
(PID.TID 0000.0001) %MON forcing_fu_mean              =   6.1022912327575E-03
(PID.TID 0000.0001) %MON forcing_fu_sd                =   1.0807410370712E-01
(PID.TID 0000.0001) %MON forcing_fu_del2              =   1.4769020744977E-04
(PID.TID 0000.0001) %MON forcing_fv_max               =   6.7287623882294E-01
(PID.TID 0000.0001) %MON forcing_fv_min               =  -6.1629748344421E-01
(PID.TID 0000.0001) %MON forcing_fv_mean              =  -7.9136873871731E-03
(PID.TID 0000.0001) %MON forcing_fv_sd                =   9.7936299092597E-02
(PID.TID 0000.0001) %MON forcing_fv_del2              =   1.2032712569454E-04
(PID.TID 0000.0001) %MON trAdv_CFL_u_max              =   1.0108033413915E-02
(PID.TID 0000.0001) %MON trAdv_CFL_v_max              =   1.5078547927769E-02
(PID.TID 0000.0001) %MON trAdv_CFL_w_max              =   2.0296142942212E-02
(PID.TID 0000.0001) %MON advcfl_uvel_max              =   8.3551134346475E-03
(PID.TID 0000.0001) %MON advcfl_vvel_max              =   1.5343809257366E-02
(PID.TID 0000.0001) %MON advcfl_wvel_max              =   1.9466442113020E-02
(PID.TID 0000.0001) %MON advcfl_W_hf_max              =   1.7993750993751E-02
(PID.TID 0000.0001) %MON pe_b_mean                    =   5.2527387448047E-04
(PID.TID 0000.0001) %MON ke_max                       =   3.6855302929754E-01
(PID.TID 0000.0001) %MON ke_mean                      =   3.5447707386949E-04
(PID.TID 0000.0001) %MON ke_vol                       =   1.3349976755153E+18
(PID.TID 0000.0001) %MON vort_r_min                   =  -1.6352218232281E-05
(PID.TID 0000.0001) %MON vort_r_max                   =   2.4310237377681E-05
(PID.TID 0000.0001) %MON vort_a_mean                  =  -1.9727864647440E-05
(PID.TID 0000.0001) %MON vort_a_sd                    =   7.4542971105197E-05
(PID.TID 0000.0001) %MON vort_p_mean                  =  -2.1760536416553E-05
(PID.TID 0000.0001) %MON vort_p_sd                    =   9.7246843607325E-05
(PID.TID 0000.0001) %MON surfExpan_theta_mean         =   2.9052966562885E-07
(PID.TID 0000.0001) %MON surfExpan_salt_mean          =   6.0454825337028E-08
(PID.TID 0000.0001) // =======================================================
(PID.TID 0000.0001) // End MONITOR dynamic field statistics
(PID.TID 0000.0001) // =======================================================
(PID.TID 0000.0001) // =======================================================
(PID.TID 0000.0001) // Begin MONITOR SEAICE statistics
(PID.TID 0000.0001) // =======================================================
(PID.TID 0000.0001) %MON seaice_tsnumber              =                   536
(PID.TID 0000.0001) %MON seaice_time_sec              =   4.8240000000000E+05
(PID.TID 0000.0001) %MON seaice_uice_max              =   4.0000000000000E-01
(PID.TID 0000.0001) %MON seaice_uice_min              =  -4.0000000000000E-01
(PID.TID 0000.0001) %MON seaice_uice_mean             =  -8.3054598624025E-03
(PID.TID 0000.0001) %MON seaice_uice_sd               =   1.9802383574176E-01
(PID.TID 0000.0001) %MON seaice_uice_del2             =   2.2931571122150E-04
(PID.TID 0000.0001) %MON seaice_vice_max              =   4.0000000000000E-01
(PID.TID 0000.0001) %MON seaice_vice_min              =  -4.0000000000000E-01
(PID.TID 0000.0001) %MON seaice_vice_mean             =  -2.1960776359499E-02
(PID.TID 0000.0001) %MON seaice_vice_sd               =   2.1302038025672E-01
(PID.TID 0000.0001) %MON seaice_vice_del2             =   2.3932563818061E-04
(PID.TID 0000.0001) %MON seaice_area_max              =   1.0000000000000E+00
(PID.TID 0000.0001) %MON seaice_area_min              =   0.0000000000000E+00
(PID.TID 0000.0001) %MON seaice_area_mean             =   6.6763737431641E-02
(PID.TID 0000.0001) %MON seaice_area_sd               =   2.3144394978613E-01
(PID.TID 0000.0001) %MON seaice_area_del2             =   4.0766508760437E-04
(PID.TID 0000.0001) %MON seaice_heff_max              =   2.5061079182895E+01
(PID.TID 0000.0001) %MON seaice_heff_min              =   0.0000000000000E+00
(PID.TID 0000.0001) %MON seaice_heff_mean             =   2.1360063562111E-01
(PID.TID 0000.0001) %MON seaice_heff_sd               =   1.0675446782881E+00
(PID.TID 0000.0001) %MON seaice_heff_del2             =   3.8622456696584E-03
(PID.TID 0000.0001) %MON seaice_hsnow_max             =   8.2774935307680E+00
(PID.TID 0000.0001) %MON seaice_hsnow_min             =   0.0000000000000E+00
(PID.TID 0000.0001) %MON seaice_hsnow_mean            =   2.4183184124348E-02
(PID.TID 0000.0001) %MON seaice_hsnow_sd              =   1.5652222213386E-01
(PID.TID 0000.0001) %MON seaice_hsnow_del2            =   1.2431406911789E-03
(PID.TID 0000.0001) // =======================================================
(PID.TID 0000.0001) // End MONITOR SEAICE statistics
(PID.TID 0000.0001) // =======================================================
 Computing Diagnostic #     86  oceQnet      Counter:       4   Parms: SM      U1      
 Computing Diagnostic #     87  oceQsw       Counter:       4   Parms: SM      U1      
 Computing Diagnostic #     84  oceFWflx     Counter:       4   Parms: SM      U1      
 Computing Diagnostic #     85  oceSflux     Counter:       4   Parms: SM      U1      
 Computing Diagnostic #     80  oceTAUX      Counter:       4   Parms: UU      U1      
           Vector  Mate for  oceTAUX      Diagnostic #     81  oceTAUY  exists 
 Computing Diagnostic #     81  oceTAUY      Counter:       4   Parms: VV      U1      
           Vector  Mate for  oceTAUY      Diagnostic #     80  oceTAUX  exists 
 Computing Diagnostic #     26  THETA        Counter:       4   Parms: SMR     MR      
 Computing Diagnostic #     27  SALT         Counter:       4   Parms: SMR     MR      
 Computing Diagnostic #     30  UVEL         Counter:       4   Parms: UUR     MR      
           Vector  Mate for  UVEL         Diagnostic #     31  VVEL     exists 
 Computing Diagnostic #     31  VVEL         Counter:       4   Parms: VVR     MR      
           Vector  Mate for  VVEL         Diagnostic #     30  UVEL     exists 
 Computing Diagnostic #    214  SIarea       Counter:       4   Parms: SM      M1      
 Computing Diagnostic #    217  SIheff       Counter:       4   Parms: SM      M1      
 Computing Diagnostic #    219  SIhsnow      Counter:       4   Parms: SM      M1      
 Computing Diagnostic #     83  sIceLoad     Counter:       4   Parms: SM      U1      
 Computing Diagnostic #    223  SIuice       Counter:       4   Parms: UU      M1      
           Vector  Mate for  SIuice       Diagnostic #    224  SIvice   exists 
 Computing Diagnostic #    224  SIvice       Counter:       4   Parms: VV      M1      
           Vector  Mate for  SIvice       Diagnostic #    223  SIuice   exists 
 Computing Diagnostic #    225  SItaux       Counter:       4   Parms: UU      U1      
           Vector  Mate for  SItaux       Diagnostic #    226  SItauy   exists 
 Computing Diagnostic #    226  SItauy       Counter:       4   Parms: VV      U1      
           Vector  Mate for  SItauy       Diagnostic #    225  SItaux   exists 
 Computing Diagnostic #    285  SIareaN      Counter:       4   Parms: SM      MX      
 Computing Diagnostic #    284  SIheffN      Counter:       4   Parms: SM      MX      
 Computing Diagnostic #    286  SIhsnowN     Counter:       4   Parms: SM      MX      
 Compute Stats, Diag. #    214  SIarea    vol(   0 ): 3.580E+14  Parms: SM      M1      
 Compute Stats, Diag. #    217  SIheff    vol(   0 ): 3.580E+14  Parms: SM      M1      
 Compute Stats, Diag. #    219  SIhsnow   vol(   0 ): 3.580E+14  Parms: SM      M1      
 Compute Stats, Diag. #     83  sIceLoad  vol(   0 ): 3.580E+14  Parms: SM      U1      
 Compute Stats, Diag. #    223  SIuice    vol(   0 ): 3.513E+14  Parms: UU      M1      
 Compute Stats, Diag. #    224  SIvice    vol(   0 ): 3.508E+14  Parms: VV      M1      
 Compute Stats, Diag. #    225  SItaux    vol(   0 ): 3.513E+14  Parms: UU      U1      
 Compute Stats, Diag. #    226  SItauy    vol(   0 ): 3.508E+14  Parms: VV      U1      
 cg2d: Sum(rhs),rhsMax =   1.74988149010583E+01  2.89686833182123E-01
 Compute Stats, Diag. #    214  SIarea    vol(   0 ): 3.580E+14  Parms: SM      M1      
 Compute Stats, Diag. #    217  SIheff    vol(   0 ): 3.580E+14  Parms: SM      M1      
 Compute Stats, Diag. #    219  SIhsnow   vol(   0 ): 3.580E+14  Parms: SM      M1      
 Compute Stats, Diag. #     83  sIceLoad  vol(   0 ): 3.580E+14  Parms: SM      U1      
 Compute Stats, Diag. #    223  SIuice    vol(   0 ): 3.513E+14  Parms: UU      M1      
 Compute Stats, Diag. #    224  SIvice    vol(   0 ): 3.508E+14  Parms: VV      M1      
 Compute Stats, Diag. #    225  SItaux    vol(   0 ): 3.513E+14  Parms: UU      U1      
 Compute Stats, Diag. #    226  SItauy    vol(   0 ): 3.508E+14  Parms: VV      U1      
 cg2d: Sum(rhs),rhsMax =   1.73510550635824E+01  2.89753795680778E-01
 Compute Stats, Diag. #    214  SIarea    vol(   0 ): 3.580E+14  Parms: SM      M1      
 Compute Stats, Diag. #    217  SIheff    vol(   0 ): 3.580E+14  Parms: SM      M1      
 Compute Stats, Diag. #    219  SIhsnow   vol(   0 ): 3.580E+14  Parms: SM      M1      
 Compute Stats, Diag. #     83  sIceLoad  vol(   0 ): 3.580E+14  Parms: SM      U1      
 Compute Stats, Diag. #    223  SIuice    vol(   0 ): 3.513E+14  Parms: UU      M1      
 Compute Stats, Diag. #    224  SIvice    vol(   0 ): 3.508E+14  Parms: VV      M1      
 Compute Stats, Diag. #    225  SItaux    vol(   0 ): 3.513E+14  Parms: UU      U1      
 Compute Stats, Diag. #    226  SItauy    vol(   0 ): 3.508E+14  Parms: VV      U1      
 cg2d: Sum(rhs),rhsMax =   1.72038434404598E+01  2.89820872368540E-01
 Compute Stats, Diag. #    214  SIarea    vol(   0 ): 3.580E+14  Parms: SM      M1      
 Compute Stats, Diag. #    217  SIheff    vol(   0 ): 3.580E+14  Parms: SM      M1      
 Compute Stats, Diag. #    219  SIhsnow   vol(   0 ): 3.580E+14  Parms: SM      M1      
 Compute Stats, Diag. #     83  sIceLoad  vol(   0 ): 3.580E+14  Parms: SM      U1      
 Compute Stats, Diag. #    223  SIuice    vol(   0 ): 3.513E+14  Parms: UU      M1      
 Compute Stats, Diag. #    224  SIvice    vol(   0 ): 3.508E+14  Parms: VV      M1      
 Compute Stats, Diag. #    225  SItaux    vol(   0 ): 3.513E+14  Parms: UU      U1      
 Compute Stats, Diag. #    226  SItauy    vol(   0 ): 3.508E+14  Parms: VV      U1      
 cg2d: Sum(rhs),rhsMax =   1.70478511713211E+01  2.89888334456598E-01
 Computing Diagnostic #     86  oceQnet      Counter:       4   Parms: SM      U1      
 Computing Diagnostic #     87  oceQsw       Counter:       4   Parms: SM      U1      
 Computing Diagnostic #     84  oceFWflx     Counter:       4   Parms: SM      U1      
 Computing Diagnostic #     85  oceSflux     Counter:       4   Parms: SM      U1      
 Computing Diagnostic #     80  oceTAUX      Counter:       4   Parms: UU      U1      
           Vector  Mate for  oceTAUX      Diagnostic #     81  oceTAUY  exists 
 Computing Diagnostic #     81  oceTAUY      Counter:       4   Parms: VV      U1      
           Vector  Mate for  oceTAUY      Diagnostic #     80  oceTAUX  exists 
 Computing Diagnostic #     26  THETA        Counter:       4   Parms: SMR     MR      
 Computing Diagnostic #     27  SALT         Counter:       4   Parms: SMR     MR      
 Computing Diagnostic #     30  UVEL         Counter:       4   Parms: UUR     MR      
           Vector  Mate for  UVEL         Diagnostic #     31  VVEL     exists 
 Computing Diagnostic #     31  VVEL         Counter:       4   Parms: VVR     MR      
           Vector  Mate for  VVEL         Diagnostic #     30  UVEL     exists 
 Computing Diagnostic #    214  SIarea       Counter:       4   Parms: SM      M1      
 Computing Diagnostic #    217  SIheff       Counter:       4   Parms: SM      M1      
 Computing Diagnostic #    219  SIhsnow      Counter:       4   Parms: SM      M1      
 Computing Diagnostic #     83  sIceLoad     Counter:       4   Parms: SM      U1      
 Computing Diagnostic #    223  SIuice       Counter:       4   Parms: UU      M1      
           Vector  Mate for  SIuice       Diagnostic #    224  SIvice   exists 
 Computing Diagnostic #    224  SIvice       Counter:       4   Parms: VV      M1      
           Vector  Mate for  SIvice       Diagnostic #    223  SIuice   exists 
 Computing Diagnostic #    225  SItaux       Counter:       4   Parms: UU      U1      
           Vector  Mate for  SItaux       Diagnostic #    226  SItauy   exists 
 Computing Diagnostic #    226  SItauy       Counter:       4   Parms: VV      U1      
           Vector  Mate for  SItauy       Diagnostic #    225  SItaux   exists 
 Computing Diagnostic #    285  SIareaN      Counter:       4   Parms: SM      MX      
 Computing Diagnostic #    284  SIheffN      Counter:       4   Parms: SM      MX      
 Computing Diagnostic #    286  SIhsnowN     Counter:       4   Parms: SM      MX      
 Compute Stats, Diag. #    214  SIarea    vol(   0 ): 3.580E+14  Parms: SM      M1      
 Compute Stats, Diag. #    217  SIheff    vol(   0 ): 3.580E+14  Parms: SM      M1      
 Compute Stats, Diag. #    219  SIhsnow   vol(   0 ): 3.580E+14  Parms: SM      M1      
 Compute Stats, Diag. #     83  sIceLoad  vol(   0 ): 3.580E+14  Parms: SM      U1      
 Compute Stats, Diag. #    223  SIuice    vol(   0 ): 3.513E+14  Parms: UU      M1      
 Compute Stats, Diag. #    224  SIvice    vol(   0 ): 3.508E+14  Parms: VV      M1      
 Compute Stats, Diag. #    225  SItaux    vol(   0 ): 3.513E+14  Parms: UU      U1      
 Compute Stats, Diag. #    226  SItauy    vol(   0 ): 3.508E+14  Parms: VV      U1      
 cg2d: Sum(rhs),rhsMax =   1.68965235397347E+01  2.89956982367465E-01
 Compute Stats, Diag. #    214  SIarea    vol(   0 ): 3.580E+14  Parms: SM      M1      
 Compute Stats, Diag. #    217  SIheff    vol(   0 ): 3.580E+14  Parms: SM      M1      
 Compute Stats, Diag. #    219  SIhsnow   vol(   0 ): 3.580E+14  Parms: SM      M1      
 Compute Stats, Diag. #     83  sIceLoad  vol(   0 ): 3.580E+14  Parms: SM      U1      
 Compute Stats, Diag. #    223  SIuice    vol(   0 ): 3.513E+14  Parms: UU      M1      
 Compute Stats, Diag. #    224  SIvice    vol(   0 ): 3.508E+14  Parms: VV      M1      
 Compute Stats, Diag. #    225  SItaux    vol(   0 ): 3.513E+14  Parms: UU      U1      
 Compute Stats, Diag. #    226  SItauy    vol(   0 ): 3.508E+14  Parms: VV      U1      
 cg2d: Sum(rhs),rhsMax =   1.67476439197966E+01  2.90026966967293E-01
 Compute Stats, Diag. #    214  SIarea    vol(   0 ): 3.580E+14  Parms: SM      M1      
 Compute Stats, Diag. #    217  SIheff    vol(   0 ): 3.580E+14  Parms: SM      M1      
 Compute Stats, Diag. #    219  SIhsnow   vol(   0 ): 3.580E+14  Parms: SM      M1      
 Compute Stats, Diag. #     83  sIceLoad  vol(   0 ): 3.580E+14  Parms: SM      U1      
 Compute Stats, Diag. #    223  SIuice    vol(   0 ): 3.513E+14  Parms: UU      M1      
 Compute Stats, Diag. #    224  SIvice    vol(   0 ): 3.508E+14  Parms: VV      M1      
 Compute Stats, Diag. #    225  SItaux    vol(   0 ): 3.513E+14  Parms: UU      U1      
 Compute Stats, Diag. #    226  SItauy    vol(   0 ): 3.508E+14  Parms: VV      U1      
 cg2d: Sum(rhs),rhsMax =   1.65907184153807E+01  2.90099260419622E-01
 Compute Stats, Diag. #    214  SIarea    vol(   0 ): 3.580E+14  Parms: SM      M1      
 Compute Stats, Diag. #    217  SIheff    vol(   0 ): 3.580E+14  Parms: SM      M1      
 Compute Stats, Diag. #    219  SIhsnow   vol(   0 ): 3.580E+14  Parms: SM      M1      
 Compute Stats, Diag. #     83  sIceLoad  vol(   0 ): 3.580E+14  Parms: SM      U1      
 Compute Stats, Diag. #    223  SIuice    vol(   0 ): 3.513E+14  Parms: UU      M1      
 Compute Stats, Diag. #    224  SIvice    vol(   0 ): 3.508E+14  Parms: VV      M1      
 Compute Stats, Diag. #    225  SItaux    vol(   0 ): 3.513E+14  Parms: UU      U1      
 Compute Stats, Diag. #    226  SItauy    vol(   0 ): 3.508E+14  Parms: VV      U1      
 cg2d: Sum(rhs),rhsMax =   1.64447722748901E+01  2.90174286211422E-01
(PID.TID 0000.0001)      cg2d_init_res =   5.13005366484235E-02
(PID.TID 0000.0001)      cg2d_iters(min,last) =      -1      26
(PID.TID 0000.0001)      cg2d_last_res =   2.19404676502307E-05
(PID.TID 0000.0001) // =======================================================
(PID.TID 0000.0001) // Begin MONITOR dynamic field statistics
(PID.TID 0000.0001) // =======================================================
(PID.TID 0000.0001) %MON time_tsnumber                =                   544
(PID.TID 0000.0001) %MON time_secondsf                =   4.8960000000000E+05
(PID.TID 0000.0001) %MON dynstat_eta_max              =   1.0408422581720E+00
(PID.TID 0000.0001) %MON dynstat_eta_min              =  -1.8474795086106E+00
(PID.TID 0000.0001) %MON dynstat_eta_mean             =  -5.2020066817250E-04
(PID.TID 0000.0001) %MON dynstat_eta_sd               =   6.3241165145941E-01
(PID.TID 0000.0001) %MON dynstat_eta_del2             =   5.5980731645847E-05
(PID.TID 0000.0001) %MON dynstat_uvel_max             =   7.7253973133560E-01
(PID.TID 0000.0001) %MON dynstat_uvel_min             =  -6.0184276162933E-01
(PID.TID 0000.0001) %MON dynstat_uvel_mean            =   1.3373085466958E-03
(PID.TID 0000.0001) %MON dynstat_uvel_sd              =   1.8457910900324E-02
(PID.TID 0000.0001) %MON dynstat_uvel_del2            =   7.5588144609596E-06
(PID.TID 0000.0001) %MON dynstat_vvel_max             =   8.6565589947223E-01
(PID.TID 0000.0001) %MON dynstat_vvel_min             =  -8.6064829663805E-01
(PID.TID 0000.0001) %MON dynstat_vvel_mean            =   1.1725635803015E-03
(PID.TID 0000.0001) %MON dynstat_vvel_sd              =   1.9726576154912E-02
(PID.TID 0000.0001) %MON dynstat_vvel_del2            =   7.6442150713908E-06
(PID.TID 0000.0001) %MON dynstat_wvel_max             =   3.6749214124785E-04
(PID.TID 0000.0001) %MON dynstat_wvel_min             =  -8.7301292897959E-04
(PID.TID 0000.0001) %MON dynstat_wvel_mean            =   7.5071468691894E-09
(PID.TID 0000.0001) %MON dynstat_wvel_sd              =   1.8166550613426E-05
(PID.TID 0000.0001) %MON dynstat_wvel_del2            =   1.4458495993019E-08
(PID.TID 0000.0001) %MON dynstat_theta_max            =   3.2264737482370E+01
(PID.TID 0000.0001) %MON dynstat_theta_min            =  -2.0750247648656E+00
(PID.TID 0000.0001) %MON dynstat_theta_mean           =   3.5903184902389E+00
(PID.TID 0000.0001) %MON dynstat_theta_sd             =   4.4363301295004E+00
(PID.TID 0000.0001) %MON dynstat_theta_del2           =   9.4020075121306E-05
(PID.TID 0000.0001) %MON dynstat_salt_max             =   4.0711554569616E+01
(PID.TID 0000.0001) %MON dynstat_salt_min             =   9.8187324196171E+00
(PID.TID 0000.0001) %MON dynstat_salt_mean            =   3.4725575899728E+01
(PID.TID 0000.0001) %MON dynstat_salt_sd              =   3.7702706144187E-01
(PID.TID 0000.0001) %MON dynstat_salt_del2            =   3.6839703914984E-05
(PID.TID 0000.0001) %MON dynstat_sst_max              =   3.2264737482370E+01
(PID.TID 0000.0001) %MON dynstat_sst_min              =  -1.8173123223420E+00
(PID.TID 0000.0001) %MON dynstat_sst_mean             =   1.8474125615698E+01
(PID.TID 0000.0001) %MON dynstat_sst_sd               =   1.0210559856341E+01
(PID.TID 0000.0001) %MON dynstat_sst_del2             =   8.1481844952988E-04
(PID.TID 0000.0001) %MON dynstat_sss_max              =   3.9109334164701E+01
(PID.TID 0000.0001) %MON dynstat_sss_min              =   9.8187324196171E+00
(PID.TID 0000.0001) %MON dynstat_sss_mean             =   3.4700051949768E+01
(PID.TID 0000.0001) %MON dynstat_sss_sd               =   1.1619401125951E+00
(PID.TID 0000.0001) %MON dynstat_sss_del2             =   1.1647214721089E-03
(PID.TID 0000.0001) %MON forcing_qnet_max             =   5.9076054356057E+02
(PID.TID 0000.0001) %MON forcing_qnet_min             =  -7.3754271043459E+02
(PID.TID 0000.0001) %MON forcing_qnet_mean            =   1.9493383900686E+01
(PID.TID 0000.0001) %MON forcing_qnet_sd              =   1.8675371276801E+02
(PID.TID 0000.0001) %MON forcing_qnet_del2            =   3.0729526105731E-01
(PID.TID 0000.0001) %MON forcing_qsw_max              =   0.0000000000000E+00
(PID.TID 0000.0001) %MON forcing_qsw_min              =  -1.0532910221325E+02
(PID.TID 0000.0001) %MON forcing_qsw_mean             =  -1.5803151466997E+01
(PID.TID 0000.0001) %MON forcing_qsw_sd               =   2.7878296697062E+01
(PID.TID 0000.0001) %MON forcing_qsw_del2             =   2.0789189000255E-02
(PID.TID 0000.0001) %MON forcing_empmr_max            =   1.6360135050490E-03
(PID.TID 0000.0001) %MON forcing_empmr_min            =  -7.5917527079582E-02
(PID.TID 0000.0001) %MON forcing_empmr_mean           =  -5.2784756429112E-06
(PID.TID 0000.0001) %MON forcing_empmr_sd             =   2.8837836010867E-04
(PID.TID 0000.0001) %MON forcing_empmr_del2           =   4.0452118828336E-06
(PID.TID 0000.0001) %MON forcing_fu_max               =   1.1404670476913E+00
(PID.TID 0000.0001) %MON forcing_fu_min               =  -9.8447418212891E-01
(PID.TID 0000.0001) %MON forcing_fu_mean              =   5.3583875507343E-03
(PID.TID 0000.0001) %MON forcing_fu_sd                =   1.0810086992286E-01
(PID.TID 0000.0001) %MON forcing_fu_del2              =   1.4978946301319E-04
(PID.TID 0000.0001) %MON forcing_fv_max               =   7.4456009268761E-01
(PID.TID 0000.0001) %MON forcing_fv_min               =  -5.9314727783203E-01
(PID.TID 0000.0001) %MON forcing_fv_mean              =  -6.9811431027860E-03
(PID.TID 0000.0001) %MON forcing_fv_sd                =   9.8725227282225E-02
(PID.TID 0000.0001) %MON forcing_fv_del2              =   1.2285232501072E-04
(PID.TID 0000.0001) %MON trAdv_CFL_u_max              =   1.0936305435697E-02
(PID.TID 0000.0001) %MON trAdv_CFL_v_max              =   1.5074727385678E-02
(PID.TID 0000.0001) %MON trAdv_CFL_w_max              =   2.0245794858553E-02
(PID.TID 0000.0001) %MON advcfl_uvel_max              =   7.9983572515467E-03
(PID.TID 0000.0001) %MON advcfl_vvel_max              =   1.5366174915523E-02
(PID.TID 0000.0001) %MON advcfl_wvel_max              =   1.7065927073860E-02
(PID.TID 0000.0001) %MON advcfl_W_hf_max              =   1.7875804296056E-02
(PID.TID 0000.0001) %MON pe_b_mean                    =   5.2608795496992E-04
(PID.TID 0000.0001) %MON ke_max                       =   3.7040596872016E-01
(PID.TID 0000.0001) %MON ke_mean                      =   3.5344720539604E-04
(PID.TID 0000.0001) %MON ke_vol                       =   1.3349976890474E+18
(PID.TID 0000.0001) %MON vort_r_min                   =  -1.6321974271873E-05
(PID.TID 0000.0001) %MON vort_r_max                   =   2.4284765572786E-05
(PID.TID 0000.0001) %MON vort_a_mean                  =  -1.9727864647440E-05
(PID.TID 0000.0001) %MON vort_a_sd                    =   7.4542981318802E-05
(PID.TID 0000.0001) %MON vort_p_mean                  =  -2.1760536277425E-05
(PID.TID 0000.0001) %MON vort_p_sd                    =   9.7246857198979E-05
(PID.TID 0000.0001) %MON surfExpan_theta_mean         =   2.6984950378846E-07
(PID.TID 0000.0001) %MON surfExpan_salt_mean          =   4.9137869212357E-08
(PID.TID 0000.0001) // =======================================================
(PID.TID 0000.0001) // End MONITOR dynamic field statistics
(PID.TID 0000.0001) // =======================================================
(PID.TID 0000.0001) // =======================================================
(PID.TID 0000.0001) // Begin MONITOR SEAICE statistics
(PID.TID 0000.0001) // =======================================================
(PID.TID 0000.0001) %MON seaice_tsnumber              =                   544
(PID.TID 0000.0001) %MON seaice_time_sec              =   4.8960000000000E+05
(PID.TID 0000.0001) %MON seaice_uice_max              =   4.0000000000000E-01
(PID.TID 0000.0001) %MON seaice_uice_min              =  -4.0000000000000E-01
(PID.TID 0000.0001) %MON seaice_uice_mean             =  -8.3054598624025E-03
(PID.TID 0000.0001) %MON seaice_uice_sd               =   1.9802383574176E-01
(PID.TID 0000.0001) %MON seaice_uice_del2             =   2.2931571122150E-04
(PID.TID 0000.0001) %MON seaice_vice_max              =   4.0000000000000E-01
(PID.TID 0000.0001) %MON seaice_vice_min              =  -4.0000000000000E-01
(PID.TID 0000.0001) %MON seaice_vice_mean             =  -2.1960776359499E-02
(PID.TID 0000.0001) %MON seaice_vice_sd               =   2.1302038025672E-01
(PID.TID 0000.0001) %MON seaice_vice_del2             =   2.3932563818061E-04
(PID.TID 0000.0001) %MON seaice_area_max              =   1.0000000000000E+00
(PID.TID 0000.0001) %MON seaice_area_min              =   0.0000000000000E+00
(PID.TID 0000.0001) %MON seaice_area_mean             =   6.6726797700719E-02
(PID.TID 0000.0001) %MON seaice_area_sd               =   2.3138240691503E-01
(PID.TID 0000.0001) %MON seaice_area_del2             =   4.0691478990543E-04
(PID.TID 0000.0001) %MON seaice_heff_max              =   2.5058475087630E+01
(PID.TID 0000.0001) %MON seaice_heff_min              =   0.0000000000000E+00
(PID.TID 0000.0001) %MON seaice_heff_mean             =   2.1356075830922E-01
(PID.TID 0000.0001) %MON seaice_heff_sd               =   1.0675022152897E+00
(PID.TID 0000.0001) %MON seaice_heff_del2             =   3.8614189455568E-03
(PID.TID 0000.0001) %MON seaice_hsnow_max             =   8.2766349418089E+00
(PID.TID 0000.0001) %MON seaice_hsnow_min             =   0.0000000000000E+00
(PID.TID 0000.0001) %MON seaice_hsnow_mean            =   2.4179168849389E-02
(PID.TID 0000.0001) %MON seaice_hsnow_sd              =   1.5650828982335E-01
(PID.TID 0000.0001) %MON seaice_hsnow_del2            =   1.2429820709596E-03
(PID.TID 0000.0001) // =======================================================
(PID.TID 0000.0001) // End MONITOR SEAICE statistics
(PID.TID 0000.0001) // =======================================================
 Computing Diagnostic #     86  oceQnet      Counter:       4   Parms: SM      U1      
 Computing Diagnostic #     87  oceQsw       Counter:       4   Parms: SM      U1      
 Computing Diagnostic #     84  oceFWflx     Counter:       4   Parms: SM      U1      
 Computing Diagnostic #     85  oceSflux     Counter:       4   Parms: SM      U1      
 Computing Diagnostic #     80  oceTAUX      Counter:       4   Parms: UU      U1      
           Vector  Mate for  oceTAUX      Diagnostic #     81  oceTAUY  exists 
 Computing Diagnostic #     81  oceTAUY      Counter:       4   Parms: VV      U1      
           Vector  Mate for  oceTAUY      Diagnostic #     80  oceTAUX  exists 
 Computing Diagnostic #     26  THETA        Counter:       4   Parms: SMR     MR      
 Computing Diagnostic #     27  SALT         Counter:       4   Parms: SMR     MR      
 Computing Diagnostic #     30  UVEL         Counter:       4   Parms: UUR     MR      
           Vector  Mate for  UVEL         Diagnostic #     31  VVEL     exists 
 Computing Diagnostic #     31  VVEL         Counter:       4   Parms: VVR     MR      
           Vector  Mate for  VVEL         Diagnostic #     30  UVEL     exists 
 Computing Diagnostic #    214  SIarea       Counter:       4   Parms: SM      M1      
 Computing Diagnostic #    217  SIheff       Counter:       4   Parms: SM      M1      
 Computing Diagnostic #    219  SIhsnow      Counter:       4   Parms: SM      M1      
 Computing Diagnostic #     83  sIceLoad     Counter:       4   Parms: SM      U1      
 Computing Diagnostic #    223  SIuice       Counter:       4   Parms: UU      M1      
           Vector  Mate for  SIuice       Diagnostic #    224  SIvice   exists 
 Computing Diagnostic #    224  SIvice       Counter:       4   Parms: VV      M1      
           Vector  Mate for  SIvice       Diagnostic #    223  SIuice   exists 
 Computing Diagnostic #    225  SItaux       Counter:       4   Parms: UU      U1      
           Vector  Mate for  SItaux       Diagnostic #    226  SItauy   exists 
 Computing Diagnostic #    226  SItauy       Counter:       4   Parms: VV      U1      
           Vector  Mate for  SItauy       Diagnostic #    225  SItaux   exists 
 Computing Diagnostic #    285  SIareaN      Counter:       4   Parms: SM      MX      
 Computing Diagnostic #    284  SIheffN      Counter:       4   Parms: SM      MX      
 Computing Diagnostic #    286  SIhsnowN     Counter:       4   Parms: SM      MX      
 Compute Stats, Diag. #    214  SIarea    vol(   0 ): 3.580E+14  Parms: SM      M1      
 Compute Stats, Diag. #    217  SIheff    vol(   0 ): 3.580E+14  Parms: SM      M1      
 Compute Stats, Diag. #    219  SIhsnow   vol(   0 ): 3.580E+14  Parms: SM      M1      
 Compute Stats, Diag. #     83  sIceLoad  vol(   0 ): 3.580E+14  Parms: SM      U1      
 Compute Stats, Diag. #    223  SIuice    vol(   0 ): 3.513E+14  Parms: UU      M1      
 Compute Stats, Diag. #    224  SIvice    vol(   0 ): 3.508E+14  Parms: VV      M1      
 Compute Stats, Diag. #    225  SItaux    vol(   0 ): 3.513E+14  Parms: UU      U1      
 Compute Stats, Diag. #    226  SItauy    vol(   0 ): 3.508E+14  Parms: VV      U1      
 cg2d: Sum(rhs),rhsMax =   1.62884548951629E+01  2.90252514391329E-01
 Compute Stats, Diag. #    214  SIarea    vol(   0 ): 3.580E+14  Parms: SM      M1      
 Compute Stats, Diag. #    217  SIheff    vol(   0 ): 3.580E+14  Parms: SM      M1      
 Compute Stats, Diag. #    219  SIhsnow   vol(   0 ): 3.580E+14  Parms: SM      M1      
 Compute Stats, Diag. #     83  sIceLoad  vol(   0 ): 3.580E+14  Parms: SM      U1      
 Compute Stats, Diag. #    223  SIuice    vol(   0 ): 3.513E+14  Parms: UU      M1      
 Compute Stats, Diag. #    224  SIvice    vol(   0 ): 3.508E+14  Parms: VV      M1      
 Compute Stats, Diag. #    225  SItaux    vol(   0 ): 3.513E+14  Parms: UU      U1      
 Compute Stats, Diag. #    226  SItauy    vol(   0 ): 3.508E+14  Parms: VV      U1      
 cg2d: Sum(rhs),rhsMax =   1.61274302202752E+01  2.90334225922475E-01
 Compute Stats, Diag. #    214  SIarea    vol(   0 ): 3.580E+14  Parms: SM      M1      
 Compute Stats, Diag. #    217  SIheff    vol(   0 ): 3.580E+14  Parms: SM      M1      
 Compute Stats, Diag. #    219  SIhsnow   vol(   0 ): 3.580E+14  Parms: SM      M1      
 Compute Stats, Diag. #     83  sIceLoad  vol(   0 ): 3.580E+14  Parms: SM      U1      
 Compute Stats, Diag. #    223  SIuice    vol(   0 ): 3.513E+14  Parms: UU      M1      
 Compute Stats, Diag. #    224  SIvice    vol(   0 ): 3.508E+14  Parms: VV      M1      
 Compute Stats, Diag. #    225  SItaux    vol(   0 ): 3.513E+14  Parms: UU      U1      
 Compute Stats, Diag. #    226  SItauy    vol(   0 ): 3.508E+14  Parms: VV      U1      
 cg2d: Sum(rhs),rhsMax =   1.59671746366687E+01  2.90419856996863E-01
 Compute Stats, Diag. #    214  SIarea    vol(   0 ): 3.580E+14  Parms: SM      M1      
 Compute Stats, Diag. #    217  SIheff    vol(   0 ): 3.580E+14  Parms: SM      M1      
 Compute Stats, Diag. #    219  SIhsnow   vol(   0 ): 3.580E+14  Parms: SM      M1      
 Compute Stats, Diag. #     83  sIceLoad  vol(   0 ): 3.580E+14  Parms: SM      U1      
 Compute Stats, Diag. #    223  SIuice    vol(   0 ): 3.513E+14  Parms: UU      M1      
 Compute Stats, Diag. #    224  SIvice    vol(   0 ): 3.508E+14  Parms: VV      M1      
 Compute Stats, Diag. #    225  SItaux    vol(   0 ): 3.513E+14  Parms: UU      U1      
 Compute Stats, Diag. #    226  SItauy    vol(   0 ): 3.508E+14  Parms: VV      U1      
 cg2d: Sum(rhs),rhsMax =   1.58082599276573E+01  2.90509899262755E-01
 Computing Diagnostic #     86  oceQnet      Counter:       4   Parms: SM      U1      
 Computing Diagnostic #     87  oceQsw       Counter:       4   Parms: SM      U1      
 Computing Diagnostic #     84  oceFWflx     Counter:       4   Parms: SM      U1      
 Computing Diagnostic #     85  oceSflux     Counter:       4   Parms: SM      U1      
 Computing Diagnostic #     80  oceTAUX      Counter:       4   Parms: UU      U1      
           Vector  Mate for  oceTAUX      Diagnostic #     81  oceTAUY  exists 
 Computing Diagnostic #     81  oceTAUY      Counter:       4   Parms: VV      U1      
           Vector  Mate for  oceTAUY      Diagnostic #     80  oceTAUX  exists 
 Computing Diagnostic #     26  THETA        Counter:       4   Parms: SMR     MR      
 Computing Diagnostic #     27  SALT         Counter:       4   Parms: SMR     MR      
 Computing Diagnostic #     30  UVEL         Counter:       4   Parms: UUR     MR      
           Vector  Mate for  UVEL         Diagnostic #     31  VVEL     exists 
 Computing Diagnostic #     31  VVEL         Counter:       4   Parms: VVR     MR      
           Vector  Mate for  VVEL         Diagnostic #     30  UVEL     exists 
 Computing Diagnostic #    214  SIarea       Counter:       4   Parms: SM      M1      
 Computing Diagnostic #    217  SIheff       Counter:       4   Parms: SM      M1      
 Computing Diagnostic #    219  SIhsnow      Counter:       4   Parms: SM      M1      
 Computing Diagnostic #     83  sIceLoad     Counter:       4   Parms: SM      U1      
 Computing Diagnostic #    223  SIuice       Counter:       4   Parms: UU      M1      
           Vector  Mate for  SIuice       Diagnostic #    224  SIvice   exists 
 Computing Diagnostic #    224  SIvice       Counter:       4   Parms: VV      M1      
           Vector  Mate for  SIvice       Diagnostic #    223  SIuice   exists 
 Computing Diagnostic #    225  SItaux       Counter:       4   Parms: UU      U1      
           Vector  Mate for  SItaux       Diagnostic #    226  SItauy   exists 
 Computing Diagnostic #    226  SItauy       Counter:       4   Parms: VV      U1      
           Vector  Mate for  SItauy       Diagnostic #    225  SItaux   exists 
 Computing Diagnostic #    285  SIareaN      Counter:       4   Parms: SM      MX      
 Computing Diagnostic #    284  SIheffN      Counter:       4   Parms: SM      MX      
 Computing Diagnostic #    286  SIhsnowN     Counter:       4   Parms: SM      MX      
 Compute Stats, Diag. #    214  SIarea    vol(   0 ): 3.580E+14  Parms: SM      M1      
 Compute Stats, Diag. #    217  SIheff    vol(   0 ): 3.580E+14  Parms: SM      M1      
 Compute Stats, Diag. #    219  SIhsnow   vol(   0 ): 3.580E+14  Parms: SM      M1      
 Compute Stats, Diag. #     83  sIceLoad  vol(   0 ): 3.580E+14  Parms: SM      U1      
 Compute Stats, Diag. #    223  SIuice    vol(   0 ): 3.513E+14  Parms: UU      M1      
 Compute Stats, Diag. #    224  SIvice    vol(   0 ): 3.508E+14  Parms: VV      M1      
 Compute Stats, Diag. #    225  SItaux    vol(   0 ): 3.513E+14  Parms: UU      U1      
 Compute Stats, Diag. #    226  SItauy    vol(   0 ): 3.508E+14  Parms: VV      U1      
 cg2d: Sum(rhs),rhsMax =   1.56468297414458E+01  2.90604460623803E-01
 Compute Stats, Diag. #    214  SIarea    vol(   0 ): 3.580E+14  Parms: SM      M1      
 Compute Stats, Diag. #    217  SIheff    vol(   0 ): 3.580E+14  Parms: SM      M1      
 Compute Stats, Diag. #    219  SIhsnow   vol(   0 ): 3.580E+14  Parms: SM      M1      
 Compute Stats, Diag. #     83  sIceLoad  vol(   0 ): 3.580E+14  Parms: SM      U1      
 Compute Stats, Diag. #    223  SIuice    vol(   0 ): 3.513E+14  Parms: UU      M1      
 Compute Stats, Diag. #    224  SIvice    vol(   0 ): 3.508E+14  Parms: VV      M1      
 Compute Stats, Diag. #    225  SItaux    vol(   0 ): 3.513E+14  Parms: UU      U1      
 Compute Stats, Diag. #    226  SItauy    vol(   0 ): 3.508E+14  Parms: VV      U1      
 cg2d: Sum(rhs),rhsMax =   1.54720697139656E+01  2.90703499348724E-01
 Compute Stats, Diag. #    214  SIarea    vol(   0 ): 3.580E+14  Parms: SM      M1      
 Compute Stats, Diag. #    217  SIheff    vol(   0 ): 3.580E+14  Parms: SM      M1      
 Compute Stats, Diag. #    219  SIhsnow   vol(   0 ): 3.580E+14  Parms: SM      M1      
 Compute Stats, Diag. #     83  sIceLoad  vol(   0 ): 3.580E+14  Parms: SM      U1      
 Compute Stats, Diag. #    223  SIuice    vol(   0 ): 3.513E+14  Parms: UU      M1      
 Compute Stats, Diag. #    224  SIvice    vol(   0 ): 3.508E+14  Parms: VV      M1      
 Compute Stats, Diag. #    225  SItaux    vol(   0 ): 3.513E+14  Parms: UU      U1      
 Compute Stats, Diag. #    226  SItauy    vol(   0 ): 3.508E+14  Parms: VV      U1      
 cg2d: Sum(rhs),rhsMax =   1.53126796561983E+01  2.90806952607011E-01
 Compute Stats, Diag. #    214  SIarea    vol(   0 ): 3.580E+14  Parms: SM      M1      
 Compute Stats, Diag. #    217  SIheff    vol(   0 ): 3.580E+14  Parms: SM      M1      
 Compute Stats, Diag. #    219  SIhsnow   vol(   0 ): 3.580E+14  Parms: SM      M1      
 Compute Stats, Diag. #     83  sIceLoad  vol(   0 ): 3.580E+14  Parms: SM      U1      
 Compute Stats, Diag. #    223  SIuice    vol(   0 ): 3.513E+14  Parms: UU      M1      
 Compute Stats, Diag. #    224  SIvice    vol(   0 ): 3.508E+14  Parms: VV      M1      
 Compute Stats, Diag. #    225  SItaux    vol(   0 ): 3.513E+14  Parms: UU      U1      
 Compute Stats, Diag. #    226  SItauy    vol(   0 ): 3.508E+14  Parms: VV      U1      
 cg2d: Sum(rhs),rhsMax =   1.51550280253321E+01  2.90914819925221E-01
(PID.TID 0000.0001)      cg2d_init_res =   5.20908931902126E-02
(PID.TID 0000.0001)      cg2d_iters(min,last) =      -1      26
(PID.TID 0000.0001)      cg2d_last_res =   2.32579451037496E-05
(PID.TID 0000.0001) // =======================================================
(PID.TID 0000.0001) // Begin MONITOR dynamic field statistics
(PID.TID 0000.0001) // =======================================================
(PID.TID 0000.0001) %MON time_tsnumber                =                   552
(PID.TID 0000.0001) %MON time_secondsf                =   4.9680000000000E+05
(PID.TID 0000.0001) %MON dynstat_eta_max              =   1.0409834324386E+00
(PID.TID 0000.0001) %MON dynstat_eta_min              =  -1.8511110116807E+00
(PID.TID 0000.0001) %MON dynstat_eta_mean             =  -4.7940193838937E-04
(PID.TID 0000.0001) %MON dynstat_eta_sd               =   6.3281695811614E-01
(PID.TID 0000.0001) %MON dynstat_eta_del2             =   5.5818339988639E-05
(PID.TID 0000.0001) %MON dynstat_uvel_max             =   7.7209010549994E-01
(PID.TID 0000.0001) %MON dynstat_uvel_min             =  -6.0544652217202E-01
(PID.TID 0000.0001) %MON dynstat_uvel_mean            =   1.3681178906345E-03
(PID.TID 0000.0001) %MON dynstat_uvel_sd              =   1.8447406500707E-02
(PID.TID 0000.0001) %MON dynstat_uvel_del2            =   7.5623590082289E-06
(PID.TID 0000.0001) %MON dynstat_vvel_max             =   8.6535507083501E-01
(PID.TID 0000.0001) %MON dynstat_vvel_min             =  -8.6300532424604E-01
(PID.TID 0000.0001) %MON dynstat_vvel_mean            =   1.1969024176775E-03
(PID.TID 0000.0001) %MON dynstat_vvel_sd              =   1.9689434937215E-02
(PID.TID 0000.0001) %MON dynstat_vvel_del2            =   7.6434365120159E-06
(PID.TID 0000.0001) %MON dynstat_wvel_max             =   3.5256355796268E-04
(PID.TID 0000.0001) %MON dynstat_wvel_min             =  -8.6077284485276E-04
(PID.TID 0000.0001) %MON dynstat_wvel_mean            =   8.5376829353054E-09
(PID.TID 0000.0001) %MON dynstat_wvel_sd              =   1.8086569503389E-05
(PID.TID 0000.0001) %MON dynstat_wvel_del2            =   1.4524971943816E-08
(PID.TID 0000.0001) %MON dynstat_theta_max            =   3.2253620659112E+01
(PID.TID 0000.0001) %MON dynstat_theta_min            =  -2.0724244633165E+00
(PID.TID 0000.0001) %MON dynstat_theta_mean           =   3.5903123648972E+00
(PID.TID 0000.0001) %MON dynstat_theta_sd             =   4.4363170406786E+00
(PID.TID 0000.0001) %MON dynstat_theta_del2           =   9.3925524840956E-05
(PID.TID 0000.0001) %MON dynstat_salt_max             =   4.0711554941693E+01
(PID.TID 0000.0001) %MON dynstat_salt_min             =   9.8272069082347E+00
(PID.TID 0000.0001) %MON dynstat_salt_mean            =   3.4725575560800E+01
(PID.TID 0000.0001) %MON dynstat_salt_sd              =   3.7702739392843E-01
(PID.TID 0000.0001) %MON dynstat_salt_del2            =   3.6671593302169E-05
(PID.TID 0000.0001) %MON dynstat_sst_max              =   3.2253620659112E+01
(PID.TID 0000.0001) %MON dynstat_sst_min              =  -1.8174988501294E+00
(PID.TID 0000.0001) %MON dynstat_sst_mean             =   1.8474408914969E+01
(PID.TID 0000.0001) %MON dynstat_sst_sd               =   1.0211600559164E+01
(PID.TID 0000.0001) %MON dynstat_sst_del2             =   8.1398615898521E-04
(PID.TID 0000.0001) %MON dynstat_sss_max              =   3.9108922602062E+01
(PID.TID 0000.0001) %MON dynstat_sss_min              =   9.8272069082347E+00
(PID.TID 0000.0001) %MON dynstat_sss_mean             =   3.4700045223762E+01
(PID.TID 0000.0001) %MON dynstat_sss_sd               =   1.1622488236238E+00
(PID.TID 0000.0001) %MON dynstat_sss_del2             =   1.1577466465323E-03
(PID.TID 0000.0001) %MON forcing_qnet_max             =   7.4268280029297E+02
(PID.TID 0000.0001) %MON forcing_qnet_min             =  -9.0226562500000E+02
(PID.TID 0000.0001) %MON forcing_qnet_mean            =   7.6137841478229E+00
(PID.TID 0000.0001) %MON forcing_qnet_sd              =   1.9985432238323E+02
(PID.TID 0000.0001) %MON forcing_qnet_del2            =   3.2012921627803E-01
(PID.TID 0000.0001) %MON forcing_qsw_max              =   0.0000000000000E+00
(PID.TID 0000.0001) %MON forcing_qsw_min              =  -1.0974305006505E+02
(PID.TID 0000.0001) %MON forcing_qsw_mean             =  -1.7198259584793E+01
(PID.TID 0000.0001) %MON forcing_qsw_sd               =   2.9206754968637E+01
(PID.TID 0000.0001) %MON forcing_qsw_del2             =   2.1315401085738E-02
(PID.TID 0000.0001) %MON forcing_empmr_max            =   9.6204970031977E-04
(PID.TID 0000.0001) %MON forcing_empmr_min            =  -5.5681005120277E-02
(PID.TID 0000.0001) %MON forcing_empmr_mean           =  -5.7018314481536E-06
(PID.TID 0000.0001) %MON forcing_empmr_sd             =   2.4396657785432E-04
(PID.TID 0000.0001) %MON forcing_empmr_del2           =   2.5186442924462E-06
(PID.TID 0000.0001) %MON forcing_fu_max               =   1.1654524803162E+00
(PID.TID 0000.0001) %MON forcing_fu_min               =  -1.0047254562378E+00
(PID.TID 0000.0001) %MON forcing_fu_mean              =   5.0133527056804E-03
(PID.TID 0000.0001) %MON forcing_fu_sd                =   1.0844528867544E-01
(PID.TID 0000.0001) %MON forcing_fu_del2              =   1.5245631498077E-04
(PID.TID 0000.0001) %MON forcing_fv_max               =   7.7763938903810E-01
(PID.TID 0000.0001) %MON forcing_fv_min               =  -6.0638654232025E-01
(PID.TID 0000.0001) %MON forcing_fv_mean              =  -6.5546809697953E-03
(PID.TID 0000.0001) %MON forcing_fv_sd                =   9.9611119316670E-02
(PID.TID 0000.0001) %MON forcing_fv_del2              =   1.2491392883857E-04
(PID.TID 0000.0001) %MON trAdv_CFL_u_max              =   1.1943073217984E-02
(PID.TID 0000.0001) %MON trAdv_CFL_v_max              =   1.5055903716103E-02
(PID.TID 0000.0001) %MON trAdv_CFL_w_max              =   2.0151061900038E-02
(PID.TID 0000.0001) %MON advcfl_uvel_max              =   7.7012993113478E-03
(PID.TID 0000.0001) %MON advcfl_vvel_max              =   1.5360834935212E-02
(PID.TID 0000.0001) %MON advcfl_wvel_max              =   1.7052490844152E-02
(PID.TID 0000.0001) %MON advcfl_W_hf_max              =   1.7812156109732E-02
(PID.TID 0000.0001) %MON pe_b_mean                    =   5.2676244084969E-04
(PID.TID 0000.0001) %MON ke_max                       =   3.7196823329324E-01
(PID.TID 0000.0001) %MON ke_mean                      =   3.5262227305563E-04
(PID.TID 0000.0001) %MON ke_vol                       =   1.3349977035213E+18
(PID.TID 0000.0001) %MON vort_r_min                   =  -1.6280212383690E-05
(PID.TID 0000.0001) %MON vort_r_max                   =   2.4231191901511E-05
(PID.TID 0000.0001) %MON vort_a_mean                  =  -1.9727864647440E-05
(PID.TID 0000.0001) %MON vort_a_sd                    =   7.4542991988826E-05
(PID.TID 0000.0001) %MON vort_p_mean                  =  -2.1760536127920E-05
(PID.TID 0000.0001) %MON vort_p_sd                    =   9.7246853023878E-05
(PID.TID 0000.0001) %MON surfExpan_theta_mean         =   2.3713820869266E-07
(PID.TID 0000.0001) %MON surfExpan_salt_mean          =   3.9086381406856E-08
(PID.TID 0000.0001) // =======================================================
(PID.TID 0000.0001) // End MONITOR dynamic field statistics
(PID.TID 0000.0001) // =======================================================
(PID.TID 0000.0001) // =======================================================
(PID.TID 0000.0001) // Begin MONITOR SEAICE statistics
(PID.TID 0000.0001) // =======================================================
(PID.TID 0000.0001) %MON seaice_tsnumber              =                   552
(PID.TID 0000.0001) %MON seaice_time_sec              =   4.9680000000000E+05
(PID.TID 0000.0001) %MON seaice_uice_max              =   4.0000000000000E-01
(PID.TID 0000.0001) %MON seaice_uice_min              =  -4.0000000000000E-01
(PID.TID 0000.0001) %MON seaice_uice_mean             =  -8.3054598624025E-03
(PID.TID 0000.0001) %MON seaice_uice_sd               =   1.9802383574176E-01
(PID.TID 0000.0001) %MON seaice_uice_del2             =   2.2931571122150E-04
(PID.TID 0000.0001) %MON seaice_vice_max              =   4.0000000000000E-01
(PID.TID 0000.0001) %MON seaice_vice_min              =  -4.0000000000000E-01
(PID.TID 0000.0001) %MON seaice_vice_mean             =  -2.1960776359499E-02
(PID.TID 0000.0001) %MON seaice_vice_sd               =   2.1302038025672E-01
(PID.TID 0000.0001) %MON seaice_vice_del2             =   2.3932563818061E-04
(PID.TID 0000.0001) %MON seaice_area_max              =   1.0000000000000E+00
(PID.TID 0000.0001) %MON seaice_area_min              =   0.0000000000000E+00
(PID.TID 0000.0001) %MON seaice_area_mean             =   6.6689385220707E-02
(PID.TID 0000.0001) %MON seaice_area_sd               =   2.3132097025623E-01
(PID.TID 0000.0001) %MON seaice_area_del2             =   4.0616170743782E-04
(PID.TID 0000.0001) %MON seaice_heff_max              =   2.5055892088450E+01
(PID.TID 0000.0001) %MON seaice_heff_min              =   0.0000000000000E+00
(PID.TID 0000.0001) %MON seaice_heff_mean             =   2.1352108953771E-01
(PID.TID 0000.0001) %MON seaice_heff_sd               =   1.0674602319694E+00
(PID.TID 0000.0001) %MON seaice_heff_del2             =   3.8605938713421E-03
(PID.TID 0000.0001) %MON seaice_hsnow_max             =   8.2757830578485E+00
(PID.TID 0000.0001) %MON seaice_hsnow_min             =   0.0000000000000E+00
(PID.TID 0000.0001) %MON seaice_hsnow_mean            =   2.4167093553244E-02
(PID.TID 0000.0001) %MON seaice_hsnow_sd              =   1.5648463197568E-01
(PID.TID 0000.0001) %MON seaice_hsnow_del2            =   1.2428137597288E-03
(PID.TID 0000.0001) // =======================================================
(PID.TID 0000.0001) // End MONITOR SEAICE statistics
(PID.TID 0000.0001) // =======================================================
 Computing Diagnostic #     86  oceQnet      Counter:       4   Parms: SM      U1      
 Computing Diagnostic #     87  oceQsw       Counter:       4   Parms: SM      U1      
 Computing Diagnostic #     84  oceFWflx     Counter:       4   Parms: SM      U1      
 Computing Diagnostic #     85  oceSflux     Counter:       4   Parms: SM      U1      
 Computing Diagnostic #     80  oceTAUX      Counter:       4   Parms: UU      U1      
           Vector  Mate for  oceTAUX      Diagnostic #     81  oceTAUY  exists 
 Computing Diagnostic #     81  oceTAUY      Counter:       4   Parms: VV      U1      
           Vector  Mate for  oceTAUY      Diagnostic #     80  oceTAUX  exists 
 Computing Diagnostic #     26  THETA        Counter:       4   Parms: SMR     MR      
 Computing Diagnostic #     27  SALT         Counter:       4   Parms: SMR     MR      
 Computing Diagnostic #     30  UVEL         Counter:       4   Parms: UUR     MR      
           Vector  Mate for  UVEL         Diagnostic #     31  VVEL     exists 
 Computing Diagnostic #     31  VVEL         Counter:       4   Parms: VVR     MR      
           Vector  Mate for  VVEL         Diagnostic #     30  UVEL     exists 
 Computing Diagnostic #    214  SIarea       Counter:       4   Parms: SM      M1      
 Computing Diagnostic #    217  SIheff       Counter:       4   Parms: SM      M1      
 Computing Diagnostic #    219  SIhsnow      Counter:       4   Parms: SM      M1      
 Computing Diagnostic #     83  sIceLoad     Counter:       4   Parms: SM      U1      
 Computing Diagnostic #    223  SIuice       Counter:       4   Parms: UU      M1      
           Vector  Mate for  SIuice       Diagnostic #    224  SIvice   exists 
 Computing Diagnostic #    224  SIvice       Counter:       4   Parms: VV      M1      
           Vector  Mate for  SIvice       Diagnostic #    223  SIuice   exists 
 Computing Diagnostic #    225  SItaux       Counter:       4   Parms: UU      U1      
           Vector  Mate for  SItaux       Diagnostic #    226  SItauy   exists 
 Computing Diagnostic #    226  SItauy       Counter:       4   Parms: VV      U1      
           Vector  Mate for  SItauy       Diagnostic #    225  SItaux   exists 
 Computing Diagnostic #    285  SIareaN      Counter:       4   Parms: SM      MX      
 Computing Diagnostic #    284  SIheffN      Counter:       4   Parms: SM      MX      
 Computing Diagnostic #    286  SIhsnowN     Counter:       4   Parms: SM      MX      
 Compute Stats, Diag. #    214  SIarea    vol(   0 ): 3.580E+14  Parms: SM      M1      
 Compute Stats, Diag. #    217  SIheff    vol(   0 ): 3.580E+14  Parms: SM      M1      
 Compute Stats, Diag. #    219  SIhsnow   vol(   0 ): 3.580E+14  Parms: SM      M1      
 Compute Stats, Diag. #     83  sIceLoad  vol(   0 ): 3.580E+14  Parms: SM      U1      
 Compute Stats, Diag. #    223  SIuice    vol(   0 ): 3.513E+14  Parms: UU      M1      
 Compute Stats, Diag. #    224  SIvice    vol(   0 ): 3.508E+14  Parms: VV      M1      
 Compute Stats, Diag. #    225  SItaux    vol(   0 ): 3.513E+14  Parms: UU      U1      
 Compute Stats, Diag. #    226  SItauy    vol(   0 ): 3.508E+14  Parms: VV      U1      
 cg2d: Sum(rhs),rhsMax =   1.49954306667004E+01  2.91027029782263E-01
 Compute Stats, Diag. #    214  SIarea    vol(   0 ): 3.580E+14  Parms: SM      M1      
 Compute Stats, Diag. #    217  SIheff    vol(   0 ): 3.580E+14  Parms: SM      M1      
 Compute Stats, Diag. #    219  SIhsnow   vol(   0 ): 3.580E+14  Parms: SM      M1      
 Compute Stats, Diag. #     83  sIceLoad  vol(   0 ): 3.580E+14  Parms: SM      U1      
 Compute Stats, Diag. #    223  SIuice    vol(   0 ): 3.513E+14  Parms: UU      M1      
 Compute Stats, Diag. #    224  SIvice    vol(   0 ): 3.508E+14  Parms: VV      M1      
 Compute Stats, Diag. #    225  SItaux    vol(   0 ): 3.513E+14  Parms: UU      U1      
 Compute Stats, Diag. #    226  SItauy    vol(   0 ): 3.508E+14  Parms: VV      U1      
 cg2d: Sum(rhs),rhsMax =   1.48363933440799E+01  2.91143386486375E-01
 Compute Stats, Diag. #    214  SIarea    vol(   0 ): 3.580E+14  Parms: SM      M1      
 Compute Stats, Diag. #    217  SIheff    vol(   0 ): 3.580E+14  Parms: SM      M1      
 Compute Stats, Diag. #    219  SIhsnow   vol(   0 ): 3.580E+14  Parms: SM      M1      
 Compute Stats, Diag. #     83  sIceLoad  vol(   0 ): 3.580E+14  Parms: SM      U1      
 Compute Stats, Diag. #    223  SIuice    vol(   0 ): 3.513E+14  Parms: UU      M1      
 Compute Stats, Diag. #    224  SIvice    vol(   0 ): 3.508E+14  Parms: VV      M1      
 Compute Stats, Diag. #    225  SItaux    vol(   0 ): 3.513E+14  Parms: UU      U1      
 Compute Stats, Diag. #    226  SItauy    vol(   0 ): 3.508E+14  Parms: VV      U1      
 cg2d: Sum(rhs),rhsMax =   1.46695624129761E+01  2.91263448733741E-01
 Compute Stats, Diag. #    214  SIarea    vol(   0 ): 3.580E+14  Parms: SM      M1      
 Compute Stats, Diag. #    217  SIheff    vol(   0 ): 3.580E+14  Parms: SM      M1      
 Compute Stats, Diag. #    219  SIhsnow   vol(   0 ): 3.580E+14  Parms: SM      M1      
 Compute Stats, Diag. #     83  sIceLoad  vol(   0 ): 3.580E+14  Parms: SM      U1      
 Compute Stats, Diag. #    223  SIuice    vol(   0 ): 3.513E+14  Parms: UU      M1      
 Compute Stats, Diag. #    224  SIvice    vol(   0 ): 3.508E+14  Parms: VV      M1      
 Compute Stats, Diag. #    225  SItaux    vol(   0 ): 3.513E+14  Parms: UU      U1      
 Compute Stats, Diag. #    226  SItauy    vol(   0 ): 3.508E+14  Parms: VV      U1      
 cg2d: Sum(rhs),rhsMax =   1.45118487769747E+01  2.91387400011079E-01
 Computing Diagnostic #     86  oceQnet      Counter:       4   Parms: SM      U1      
 Computing Diagnostic #     87  oceQsw       Counter:       4   Parms: SM      U1      
 Computing Diagnostic #     84  oceFWflx     Counter:       4   Parms: SM      U1      
 Computing Diagnostic #     85  oceSflux     Counter:       4   Parms: SM      U1      
 Computing Diagnostic #     80  oceTAUX      Counter:       4   Parms: UU      U1      
           Vector  Mate for  oceTAUX      Diagnostic #     81  oceTAUY  exists 
 Computing Diagnostic #     81  oceTAUY      Counter:       4   Parms: VV      U1      
           Vector  Mate for  oceTAUY      Diagnostic #     80  oceTAUX  exists 
 Computing Diagnostic #     26  THETA        Counter:       4   Parms: SMR     MR      
 Computing Diagnostic #     27  SALT         Counter:       4   Parms: SMR     MR      
 Computing Diagnostic #     30  UVEL         Counter:       4   Parms: UUR     MR      
           Vector  Mate for  UVEL         Diagnostic #     31  VVEL     exists 
 Computing Diagnostic #     31  VVEL         Counter:       4   Parms: VVR     MR      
           Vector  Mate for  VVEL         Diagnostic #     30  UVEL     exists 
 Computing Diagnostic #    214  SIarea       Counter:       4   Parms: SM      M1      
 Computing Diagnostic #    217  SIheff       Counter:       4   Parms: SM      M1      
 Computing Diagnostic #    219  SIhsnow      Counter:       4   Parms: SM      M1      
 Computing Diagnostic #     83  sIceLoad     Counter:       4   Parms: SM      U1      
 Computing Diagnostic #    223  SIuice       Counter:       4   Parms: UU      M1      
           Vector  Mate for  SIuice       Diagnostic #    224  SIvice   exists 
 Computing Diagnostic #    224  SIvice       Counter:       4   Parms: VV      M1      
           Vector  Mate for  SIvice       Diagnostic #    223  SIuice   exists 
 Computing Diagnostic #    225  SItaux       Counter:       4   Parms: UU      U1      
           Vector  Mate for  SItaux       Diagnostic #    226  SItauy   exists 
 Computing Diagnostic #    226  SItauy       Counter:       4   Parms: VV      U1      
           Vector  Mate for  SItauy       Diagnostic #    225  SItaux   exists 
 Computing Diagnostic #    285  SIareaN      Counter:       4   Parms: SM      MX      
 Computing Diagnostic #    284  SIheffN      Counter:       4   Parms: SM      MX      
 Computing Diagnostic #    286  SIhsnowN     Counter:       4   Parms: SM      MX      
 Compute Stats, Diag. #    214  SIarea    vol(   0 ): 3.580E+14  Parms: SM      M1      
 Compute Stats, Diag. #    217  SIheff    vol(   0 ): 3.580E+14  Parms: SM      M1      
 Compute Stats, Diag. #    219  SIhsnow   vol(   0 ): 3.580E+14  Parms: SM      M1      
 Compute Stats, Diag. #     83  sIceLoad  vol(   0 ): 3.580E+14  Parms: SM      U1      
 Compute Stats, Diag. #    223  SIuice    vol(   0 ): 3.513E+14  Parms: UU      M1      
 Compute Stats, Diag. #    224  SIvice    vol(   0 ): 3.508E+14  Parms: VV      M1      
 Compute Stats, Diag. #    225  SItaux    vol(   0 ): 3.513E+14  Parms: UU      U1      
 Compute Stats, Diag. #    226  SItauy    vol(   0 ): 3.508E+14  Parms: VV      U1      
 cg2d: Sum(rhs),rhsMax =   1.43592907000235E+01  2.91515387367045E-01
 Compute Stats, Diag. #    214  SIarea    vol(   0 ): 3.580E+14  Parms: SM      M1      
 Compute Stats, Diag. #    217  SIheff    vol(   0 ): 3.580E+14  Parms: SM      M1      
 Compute Stats, Diag. #    219  SIhsnow   vol(   0 ): 3.580E+14  Parms: SM      M1      
 Compute Stats, Diag. #     83  sIceLoad  vol(   0 ): 3.580E+14  Parms: SM      U1      
 Compute Stats, Diag. #    223  SIuice    vol(   0 ): 3.513E+14  Parms: UU      M1      
 Compute Stats, Diag. #    224  SIvice    vol(   0 ): 3.508E+14  Parms: VV      M1      
 Compute Stats, Diag. #    225  SItaux    vol(   0 ): 3.513E+14  Parms: UU      U1      
 Compute Stats, Diag. #    226  SItauy    vol(   0 ): 3.508E+14  Parms: VV      U1      
 cg2d: Sum(rhs),rhsMax =   1.42035447138697E+01  2.91648539866193E-01
 Compute Stats, Diag. #    214  SIarea    vol(   0 ): 3.580E+14  Parms: SM      M1      
 Compute Stats, Diag. #    217  SIheff    vol(   0 ): 3.580E+14  Parms: SM      M1      
 Compute Stats, Diag. #    219  SIhsnow   vol(   0 ): 3.580E+14  Parms: SM      M1      
 Compute Stats, Diag. #     83  sIceLoad  vol(   0 ): 3.580E+14  Parms: SM      U1      
 Compute Stats, Diag. #    223  SIuice    vol(   0 ): 3.513E+14  Parms: UU      M1      
 Compute Stats, Diag. #    224  SIvice    vol(   0 ): 3.508E+14  Parms: VV      M1      
 Compute Stats, Diag. #    225  SItaux    vol(   0 ): 3.513E+14  Parms: UU      U1      
 Compute Stats, Diag. #    226  SItauy    vol(   0 ): 3.508E+14  Parms: VV      U1      
 cg2d: Sum(rhs),rhsMax =   1.40606442035694E+01  2.91784412348851E-01
 Compute Stats, Diag. #    214  SIarea    vol(   0 ): 3.580E+14  Parms: SM      M1      
 Compute Stats, Diag. #    217  SIheff    vol(   0 ): 3.580E+14  Parms: SM      M1      
 Compute Stats, Diag. #    219  SIhsnow   vol(   0 ): 3.580E+14  Parms: SM      M1      
 Compute Stats, Diag. #     83  sIceLoad  vol(   0 ): 3.580E+14  Parms: SM      U1      
 Compute Stats, Diag. #    223  SIuice    vol(   0 ): 3.513E+14  Parms: UU      M1      
 Compute Stats, Diag. #    224  SIvice    vol(   0 ): 3.508E+14  Parms: VV      M1      
 Compute Stats, Diag. #    225  SItaux    vol(   0 ): 3.513E+14  Parms: UU      U1      
 Compute Stats, Diag. #    226  SItauy    vol(   0 ): 3.508E+14  Parms: VV      U1      
 cg2d: Sum(rhs),rhsMax =   1.39243723284424E+01  2.91923012625837E-01
(PID.TID 0000.0001)      cg2d_init_res =   5.14660397950118E-02
(PID.TID 0000.0001)      cg2d_iters(min,last) =      -1      26
(PID.TID 0000.0001)      cg2d_last_res =   2.38645599311274E-05
(PID.TID 0000.0001) // =======================================================
(PID.TID 0000.0001) // Begin MONITOR dynamic field statistics
(PID.TID 0000.0001) // =======================================================
(PID.TID 0000.0001) %MON time_tsnumber                =                   560
(PID.TID 0000.0001) %MON time_secondsf                =   5.0400000000000E+05
(PID.TID 0000.0001) %MON dynstat_eta_max              =   1.0398889782540E+00
(PID.TID 0000.0001) %MON dynstat_eta_min              =  -1.8542923021177E+00
(PID.TID 0000.0001) %MON dynstat_eta_mean             =  -4.4047236824322E-04
(PID.TID 0000.0001) %MON dynstat_eta_sd               =   6.3309710467649E-01
(PID.TID 0000.0001) %MON dynstat_eta_del2             =   5.5701775334106E-05
(PID.TID 0000.0001) %MON dynstat_uvel_max             =   7.7141013837270E-01
(PID.TID 0000.0001) %MON dynstat_uvel_min             =  -6.0777527833694E-01
(PID.TID 0000.0001) %MON dynstat_uvel_mean            =   1.3979666566534E-03
(PID.TID 0000.0001) %MON dynstat_uvel_sd              =   1.8446838220167E-02
(PID.TID 0000.0001) %MON dynstat_uvel_del2            =   7.5657712815525E-06
(PID.TID 0000.0001) %MON dynstat_vvel_max             =   8.6328863570206E-01
(PID.TID 0000.0001) %MON dynstat_vvel_min             =  -8.6483149453627E-01
(PID.TID 0000.0001) %MON dynstat_vvel_mean            =   1.2167694064849E-03
(PID.TID 0000.0001) %MON dynstat_vvel_sd              =   1.9656653575211E-02
(PID.TID 0000.0001) %MON dynstat_vvel_del2            =   7.6416162297395E-06
(PID.TID 0000.0001) %MON dynstat_wvel_max             =   3.4042652696684E-04
(PID.TID 0000.0001) %MON dynstat_wvel_min             =  -8.5316580231114E-04
(PID.TID 0000.0001) %MON dynstat_wvel_mean            =   8.8937683910987E-09
(PID.TID 0000.0001) %MON dynstat_wvel_sd              =   1.8012162320728E-05
(PID.TID 0000.0001) %MON dynstat_wvel_del2            =   1.4588665933305E-08
(PID.TID 0000.0001) %MON dynstat_theta_max            =   3.2240896879025E+01
(PID.TID 0000.0001) %MON dynstat_theta_min            =  -2.0696086422103E+00
(PID.TID 0000.0001) %MON dynstat_theta_mean           =   3.5903125276935E+00
(PID.TID 0000.0001) %MON dynstat_theta_sd             =   4.4363339683254E+00
(PID.TID 0000.0001) %MON dynstat_theta_del2           =   9.3833578907096E-05
(PID.TID 0000.0001) %MON dynstat_salt_max             =   4.0711555377591E+01
(PID.TID 0000.0001) %MON dynstat_salt_min             =   9.7957526581129E+00
(PID.TID 0000.0001) %MON dynstat_salt_mean            =   3.4725575233176E+01
(PID.TID 0000.0001) %MON dynstat_salt_sd              =   3.7702768420904E-01
(PID.TID 0000.0001) %MON dynstat_salt_del2            =   3.6312014887368E-05
(PID.TID 0000.0001) %MON dynstat_sst_max              =   3.2240896879025E+01
(PID.TID 0000.0001) %MON dynstat_sst_min              =  -1.8158000371050E+00
(PID.TID 0000.0001) %MON dynstat_sst_mean             =   1.8476604255566E+01
(PID.TID 0000.0001) %MON dynstat_sst_sd               =   1.0213885950299E+01
(PID.TID 0000.0001) %MON dynstat_sst_del2             =   8.1289609937038E-04
(PID.TID 0000.0001) %MON dynstat_sss_max              =   3.9108514553829E+01
(PID.TID 0000.0001) %MON dynstat_sss_min              =   9.7957526581129E+00
(PID.TID 0000.0001) %MON dynstat_sss_mean             =   3.4700058467970E+01
(PID.TID 0000.0001) %MON dynstat_sss_sd               =   1.1625220299647E+00
(PID.TID 0000.0001) %MON dynstat_sss_del2             =   1.1404716613489E-03
(PID.TID 0000.0001) %MON forcing_qnet_max             =   7.2588342285156E+02
(PID.TID 0000.0001) %MON forcing_qnet_min             =  -6.7212626366810E+02
(PID.TID 0000.0001) %MON forcing_qnet_mean            =  -5.6760331756874E+00
(PID.TID 0000.0001) %MON forcing_qnet_sd              =   1.9403562558711E+02
(PID.TID 0000.0001) %MON forcing_qnet_del2            =   3.0853655955377E-01
(PID.TID 0000.0001) %MON forcing_qsw_max              =   0.0000000000000E+00
(PID.TID 0000.0001) %MON forcing_qsw_min              =  -1.0823477325862E+02
(PID.TID 0000.0001) %MON forcing_qsw_mean             =  -1.8746986718966E+01
(PID.TID 0000.0001) %MON forcing_qsw_sd               =   2.8273537168576E+01
(PID.TID 0000.0001) %MON forcing_qsw_del2             =   2.1444454079020E-02
(PID.TID 0000.0001) %MON forcing_empmr_max            =   9.6666126046330E-04
(PID.TID 0000.0001) %MON forcing_empmr_min            =  -7.3431268334389E-02
(PID.TID 0000.0001) %MON forcing_empmr_mean           =  -4.9285837311586E-06
(PID.TID 0000.0001) %MON forcing_empmr_sd             =   2.9663099681230E-04
(PID.TID 0000.0001) %MON forcing_empmr_del2           =   3.0479175891573E-06
(PID.TID 0000.0001) %MON forcing_fu_max               =   1.1482069492340E+00
(PID.TID 0000.0001) %MON forcing_fu_min               =  -1.0096452505130E+00
(PID.TID 0000.0001) %MON forcing_fu_mean              =   4.7311142431698E-03
(PID.TID 0000.0001) %MON forcing_fu_sd                =   1.0925972472556E-01
(PID.TID 0000.0001) %MON forcing_fu_del2              =   1.5487700933349E-04
(PID.TID 0000.0001) %MON forcing_fv_max               =   7.6898685097696E-01
(PID.TID 0000.0001) %MON forcing_fv_min               =  -6.7817479372025E-01
(PID.TID 0000.0001) %MON forcing_fv_mean              =  -6.7213451376981E-03
(PID.TID 0000.0001) %MON forcing_fv_sd                =   1.0075275510709E-01
(PID.TID 0000.0001) %MON forcing_fv_del2              =   1.2768274292499E-04
(PID.TID 0000.0001) %MON trAdv_CFL_u_max              =   1.2897118712777E-02
(PID.TID 0000.0001) %MON trAdv_CFL_v_max              =   1.5016361664857E-02
(PID.TID 0000.0001) %MON trAdv_CFL_w_max              =   1.9944897681975E-02
(PID.TID 0000.0001) %MON advcfl_uvel_max              =   7.5548659243222E-03
(PID.TID 0000.0001) %MON advcfl_vvel_max              =   1.5324153843194E-02
(PID.TID 0000.0001) %MON advcfl_wvel_max              =   1.7022913141188E-02
(PID.TID 0000.0001) %MON advcfl_W_hf_max              =   1.7804197867881E-02
(PID.TID 0000.0001) %MON pe_b_mean                    =   5.2722888406891E-04
(PID.TID 0000.0001) %MON ke_max                       =   3.7383928651112E-01
(PID.TID 0000.0001) %MON ke_mean                      =   3.5205304729698E-04
(PID.TID 0000.0001) %MON ke_vol                       =   1.3349977177008E+18
(PID.TID 0000.0001) %MON vort_r_min                   =  -1.6205096944837E-05
(PID.TID 0000.0001) %MON vort_r_max                   =   2.4143337325402E-05
(PID.TID 0000.0001) %MON vort_a_mean                  =  -1.9727864647440E-05
(PID.TID 0000.0001) %MON vort_a_sd                    =   7.4543001585930E-05
(PID.TID 0000.0001) %MON vort_p_mean                  =  -2.1760535984660E-05
(PID.TID 0000.0001) %MON vort_p_sd                    =   9.7246824857255E-05
(PID.TID 0000.0001) %MON surfExpan_theta_mean         =   2.3128984911370E-07
(PID.TID 0000.0001) %MON surfExpan_salt_mean          =   4.2293239222863E-08
(PID.TID 0000.0001) // =======================================================
(PID.TID 0000.0001) // End MONITOR dynamic field statistics
(PID.TID 0000.0001) // =======================================================
(PID.TID 0000.0001) // =======================================================
(PID.TID 0000.0001) // Begin MONITOR SEAICE statistics
(PID.TID 0000.0001) // =======================================================
(PID.TID 0000.0001) %MON seaice_tsnumber              =                   560
(PID.TID 0000.0001) %MON seaice_time_sec              =   5.0400000000000E+05
(PID.TID 0000.0001) %MON seaice_uice_max              =   4.0000000000000E-01
(PID.TID 0000.0001) %MON seaice_uice_min              =  -4.0000000000000E-01
(PID.TID 0000.0001) %MON seaice_uice_mean             =  -8.3054598624025E-03
(PID.TID 0000.0001) %MON seaice_uice_sd               =   1.9802383574176E-01
(PID.TID 0000.0001) %MON seaice_uice_del2             =   2.2931571122150E-04
(PID.TID 0000.0001) %MON seaice_vice_max              =   4.0000000000000E-01
(PID.TID 0000.0001) %MON seaice_vice_min              =  -4.0000000000000E-01
(PID.TID 0000.0001) %MON seaice_vice_mean             =  -2.1960776359499E-02
(PID.TID 0000.0001) %MON seaice_vice_sd               =   2.1302038025672E-01
(PID.TID 0000.0001) %MON seaice_vice_del2             =   2.3932563818061E-04
(PID.TID 0000.0001) %MON seaice_area_max              =   1.0000000000000E+00
(PID.TID 0000.0001) %MON seaice_area_min              =   0.0000000000000E+00
(PID.TID 0000.0001) %MON seaice_area_mean             =   6.6651935551764E-02
(PID.TID 0000.0001) %MON seaice_area_sd               =   2.3125908460366E-01
(PID.TID 0000.0001) %MON seaice_area_del2             =   4.0542149274421E-04
(PID.TID 0000.0001) %MON seaice_heff_max              =   2.5053388037719E+01
(PID.TID 0000.0001) %MON seaice_heff_min              =   0.0000000000000E+00
(PID.TID 0000.0001) %MON seaice_heff_mean             =   2.1348167274559E-01
(PID.TID 0000.0001) %MON seaice_heff_sd               =   1.0674188797165E+00
(PID.TID 0000.0001) %MON seaice_heff_del2             =   3.8597769112753E-03
(PID.TID 0000.0001) %MON seaice_hsnow_max             =   8.2749581288372E+00
(PID.TID 0000.0001) %MON seaice_hsnow_min             =   0.0000000000000E+00
(PID.TID 0000.0001) %MON seaice_hsnow_mean            =   2.4149605785932E-02
(PID.TID 0000.0001) %MON seaice_hsnow_sd              =   1.5645740909124E-01
(PID.TID 0000.0001) %MON seaice_hsnow_del2            =   1.2426500475238E-03
(PID.TID 0000.0001) // =======================================================
(PID.TID 0000.0001) // End MONITOR SEAICE statistics
(PID.TID 0000.0001) // =======================================================
 Computing Diagnostic #     86  oceQnet      Counter:       4   Parms: SM      U1      
 Computing Diagnostic #     87  oceQsw       Counter:       4   Parms: SM      U1      
 Computing Diagnostic #     84  oceFWflx     Counter:       4   Parms: SM      U1      
 Computing Diagnostic #     85  oceSflux     Counter:       4   Parms: SM      U1      
 Computing Diagnostic #     80  oceTAUX      Counter:       4   Parms: UU      U1      
           Vector  Mate for  oceTAUX      Diagnostic #     81  oceTAUY  exists 
 Computing Diagnostic #     81  oceTAUY      Counter:       4   Parms: VV      U1      
           Vector  Mate for  oceTAUY      Diagnostic #     80  oceTAUX  exists 
 Computing Diagnostic #     26  THETA        Counter:       4   Parms: SMR     MR      
 Computing Diagnostic #     27  SALT         Counter:       4   Parms: SMR     MR      
 Computing Diagnostic #     30  UVEL         Counter:       4   Parms: UUR     MR      
           Vector  Mate for  UVEL         Diagnostic #     31  VVEL     exists 
 Computing Diagnostic #     31  VVEL         Counter:       4   Parms: VVR     MR      
           Vector  Mate for  VVEL         Diagnostic #     30  UVEL     exists 
 Computing Diagnostic #    214  SIarea       Counter:       4   Parms: SM      M1      
 Computing Diagnostic #    217  SIheff       Counter:       4   Parms: SM      M1      
 Computing Diagnostic #    219  SIhsnow      Counter:       4   Parms: SM      M1      
 Computing Diagnostic #     83  sIceLoad     Counter:       4   Parms: SM      U1      
 Computing Diagnostic #    223  SIuice       Counter:       4   Parms: UU      M1      
           Vector  Mate for  SIuice       Diagnostic #    224  SIvice   exists 
 Computing Diagnostic #    224  SIvice       Counter:       4   Parms: VV      M1      
           Vector  Mate for  SIvice       Diagnostic #    223  SIuice   exists 
 Computing Diagnostic #    225  SItaux       Counter:       4   Parms: UU      U1      
           Vector  Mate for  SItaux       Diagnostic #    226  SItauy   exists 
 Computing Diagnostic #    226  SItauy       Counter:       4   Parms: VV      U1      
           Vector  Mate for  SItauy       Diagnostic #    225  SItaux   exists 
 Computing Diagnostic #    285  SIareaN      Counter:       4   Parms: SM      MX      
 Computing Diagnostic #    284  SIheffN      Counter:       4   Parms: SM      MX      
 Computing Diagnostic #    286  SIhsnowN     Counter:       4   Parms: SM      MX      
 Compute Stats, Diag. #    214  SIarea    vol(   0 ): 3.580E+14  Parms: SM      M1      
 Compute Stats, Diag. #    217  SIheff    vol(   0 ): 3.580E+14  Parms: SM      M1      
 Compute Stats, Diag. #    219  SIhsnow   vol(   0 ): 3.580E+14  Parms: SM      M1      
 Compute Stats, Diag. #     83  sIceLoad  vol(   0 ): 3.580E+14  Parms: SM      U1      
 Compute Stats, Diag. #    223  SIuice    vol(   0 ): 3.513E+14  Parms: UU      M1      
 Compute Stats, Diag. #    224  SIvice    vol(   0 ): 3.508E+14  Parms: VV      M1      
 Compute Stats, Diag. #    225  SItaux    vol(   0 ): 3.513E+14  Parms: UU      U1      
 Compute Stats, Diag. #    226  SItauy    vol(   0 ): 3.508E+14  Parms: VV      U1      
 cg2d: Sum(rhs),rhsMax =   1.37895552845540E+01  2.92063971503692E-01
 Compute Stats, Diag. #    214  SIarea    vol(   0 ): 3.580E+14  Parms: SM      M1      
 Compute Stats, Diag. #    217  SIheff    vol(   0 ): 3.580E+14  Parms: SM      M1      
 Compute Stats, Diag. #    219  SIhsnow   vol(   0 ): 3.580E+14  Parms: SM      M1      
 Compute Stats, Diag. #     83  sIceLoad  vol(   0 ): 3.580E+14  Parms: SM      U1      
 Compute Stats, Diag. #    223  SIuice    vol(   0 ): 3.513E+14  Parms: UU      M1      
 Compute Stats, Diag. #    224  SIvice    vol(   0 ): 3.508E+14  Parms: VV      M1      
 Compute Stats, Diag. #    225  SItaux    vol(   0 ): 3.513E+14  Parms: UU      U1      
 Compute Stats, Diag. #    226  SItauy    vol(   0 ): 3.508E+14  Parms: VV      U1      
 cg2d: Sum(rhs),rhsMax =   1.36512440581285E+01  2.92206061483371E-01
 Compute Stats, Diag. #    214  SIarea    vol(   0 ): 3.580E+14  Parms: SM      M1      
 Compute Stats, Diag. #    217  SIheff    vol(   0 ): 3.580E+14  Parms: SM      M1      
 Compute Stats, Diag. #    219  SIhsnow   vol(   0 ): 3.580E+14  Parms: SM      M1      
 Compute Stats, Diag. #     83  sIceLoad  vol(   0 ): 3.580E+14  Parms: SM      U1      
 Compute Stats, Diag. #    223  SIuice    vol(   0 ): 3.513E+14  Parms: UU      M1      
 Compute Stats, Diag. #    224  SIvice    vol(   0 ): 3.508E+14  Parms: VV      M1      
 Compute Stats, Diag. #    225  SItaux    vol(   0 ): 3.513E+14  Parms: UU      U1      
 Compute Stats, Diag. #    226  SItauy    vol(   0 ): 3.508E+14  Parms: VV      U1      
 cg2d: Sum(rhs),rhsMax =   1.35049921442472E+01  2.92347097481986E-01
 Compute Stats, Diag. #    214  SIarea    vol(   0 ): 3.580E+14  Parms: SM      M1      
 Compute Stats, Diag. #    217  SIheff    vol(   0 ): 3.580E+14  Parms: SM      M1      
 Compute Stats, Diag. #    219  SIhsnow   vol(   0 ): 3.580E+14  Parms: SM      M1      
 Compute Stats, Diag. #     83  sIceLoad  vol(   0 ): 3.580E+14  Parms: SM      U1      
 Compute Stats, Diag. #    223  SIuice    vol(   0 ): 3.513E+14  Parms: UU      M1      
 Compute Stats, Diag. #    224  SIvice    vol(   0 ): 3.508E+14  Parms: VV      M1      
 Compute Stats, Diag. #    225  SItaux    vol(   0 ): 3.513E+14  Parms: UU      U1      
 Compute Stats, Diag. #    226  SItauy    vol(   0 ): 3.508E+14  Parms: VV      U1      
 cg2d: Sum(rhs),rhsMax =   1.33657491725903E+01  2.92486375910244E-01
 Computing Diagnostic #     86  oceQnet      Counter:       4   Parms: SM      U1      
 Computing Diagnostic #     87  oceQsw       Counter:       4   Parms: SM      U1      
 Computing Diagnostic #     84  oceFWflx     Counter:       4   Parms: SM      U1      
 Computing Diagnostic #     85  oceSflux     Counter:       4   Parms: SM      U1      
 Computing Diagnostic #     80  oceTAUX      Counter:       4   Parms: UU      U1      
           Vector  Mate for  oceTAUX      Diagnostic #     81  oceTAUY  exists 
 Computing Diagnostic #     81  oceTAUY      Counter:       4   Parms: VV      U1      
           Vector  Mate for  oceTAUY      Diagnostic #     80  oceTAUX  exists 
 Computing Diagnostic #     26  THETA        Counter:       4   Parms: SMR     MR      
 Computing Diagnostic #     27  SALT         Counter:       4   Parms: SMR     MR      
 Computing Diagnostic #     30  UVEL         Counter:       4   Parms: UUR     MR      
           Vector  Mate for  UVEL         Diagnostic #     31  VVEL     exists 
 Computing Diagnostic #     31  VVEL         Counter:       4   Parms: VVR     MR      
           Vector  Mate for  VVEL         Diagnostic #     30  UVEL     exists 
 Computing Diagnostic #    214  SIarea       Counter:       4   Parms: SM      M1      
 Computing Diagnostic #    217  SIheff       Counter:       4   Parms: SM      M1      
 Computing Diagnostic #    219  SIhsnow      Counter:       4   Parms: SM      M1      
 Computing Diagnostic #     83  sIceLoad     Counter:       4   Parms: SM      U1      
 Computing Diagnostic #    223  SIuice       Counter:       4   Parms: UU      M1      
           Vector  Mate for  SIuice       Diagnostic #    224  SIvice   exists 
 Computing Diagnostic #    224  SIvice       Counter:       4   Parms: VV      M1      
           Vector  Mate for  SIvice       Diagnostic #    223  SIuice   exists 
 Computing Diagnostic #    225  SItaux       Counter:       4   Parms: UU      U1      
           Vector  Mate for  SItaux       Diagnostic #    226  SItauy   exists 
 Computing Diagnostic #    226  SItauy       Counter:       4   Parms: VV      U1      
           Vector  Mate for  SItauy       Diagnostic #    225  SItaux   exists 
 Computing Diagnostic #    285  SIareaN      Counter:       4   Parms: SM      MX      
 Computing Diagnostic #    284  SIheffN      Counter:       4   Parms: SM      MX      
 Computing Diagnostic #    286  SIhsnowN     Counter:       4   Parms: SM      MX      
 Compute Stats, Diag. #    214  SIarea    vol(   0 ): 3.580E+14  Parms: SM      M1      
 Compute Stats, Diag. #    217  SIheff    vol(   0 ): 3.580E+14  Parms: SM      M1      
 Compute Stats, Diag. #    219  SIhsnow   vol(   0 ): 3.580E+14  Parms: SM      M1      
 Compute Stats, Diag. #     83  sIceLoad  vol(   0 ): 3.580E+14  Parms: SM      U1      
 Compute Stats, Diag. #    223  SIuice    vol(   0 ): 3.513E+14  Parms: UU      M1      
 Compute Stats, Diag. #    224  SIvice    vol(   0 ): 3.508E+14  Parms: VV      M1      
 Compute Stats, Diag. #    225  SItaux    vol(   0 ): 3.513E+14  Parms: UU      U1      
 Compute Stats, Diag. #    226  SItauy    vol(   0 ): 3.508E+14  Parms: VV      U1      
 cg2d: Sum(rhs),rhsMax =   1.32287990695801E+01  2.92623164785152E-01
 Compute Stats, Diag. #    214  SIarea    vol(   0 ): 3.580E+14  Parms: SM      M1      
 Compute Stats, Diag. #    217  SIheff    vol(   0 ): 3.580E+14  Parms: SM      M1      
 Compute Stats, Diag. #    219  SIhsnow   vol(   0 ): 3.580E+14  Parms: SM      M1      
 Compute Stats, Diag. #     83  sIceLoad  vol(   0 ): 3.580E+14  Parms: SM      U1      
 Compute Stats, Diag. #    223  SIuice    vol(   0 ): 3.513E+14  Parms: UU      M1      
 Compute Stats, Diag. #    224  SIvice    vol(   0 ): 3.508E+14  Parms: VV      M1      
 Compute Stats, Diag. #    225  SItaux    vol(   0 ): 3.513E+14  Parms: UU      U1      
 Compute Stats, Diag. #    226  SItauy    vol(   0 ): 3.508E+14  Parms: VV      U1      
 cg2d: Sum(rhs),rhsMax =   1.30941244001539E+01  2.92757173580897E-01
 Compute Stats, Diag. #    214  SIarea    vol(   0 ): 3.580E+14  Parms: SM      M1      
 Compute Stats, Diag. #    217  SIheff    vol(   0 ): 3.580E+14  Parms: SM      M1      
 Compute Stats, Diag. #    219  SIhsnow   vol(   0 ): 3.580E+14  Parms: SM      M1      
 Compute Stats, Diag. #     83  sIceLoad  vol(   0 ): 3.580E+14  Parms: SM      U1      
 Compute Stats, Diag. #    223  SIuice    vol(   0 ): 3.513E+14  Parms: UU      M1      
 Compute Stats, Diag. #    224  SIvice    vol(   0 ): 3.508E+14  Parms: VV      M1      
 Compute Stats, Diag. #    225  SItaux    vol(   0 ): 3.513E+14  Parms: UU      U1      
 Compute Stats, Diag. #    226  SItauy    vol(   0 ): 3.508E+14  Parms: VV      U1      
 cg2d: Sum(rhs),rhsMax =   1.29581622928800E+01  2.92887775869312E-01
 Compute Stats, Diag. #    214  SIarea    vol(   0 ): 3.580E+14  Parms: SM      M1      
 Compute Stats, Diag. #    217  SIheff    vol(   0 ): 3.580E+14  Parms: SM      M1      
 Compute Stats, Diag. #    219  SIhsnow   vol(   0 ): 3.580E+14  Parms: SM      M1      
 Compute Stats, Diag. #     83  sIceLoad  vol(   0 ): 3.580E+14  Parms: SM      U1      
 Compute Stats, Diag. #    223  SIuice    vol(   0 ): 3.513E+14  Parms: UU      M1      
 Compute Stats, Diag. #    224  SIvice    vol(   0 ): 3.508E+14  Parms: VV      M1      
 Compute Stats, Diag. #    225  SItaux    vol(   0 ): 3.513E+14  Parms: UU      U1      
 Compute Stats, Diag. #    226  SItauy    vol(   0 ): 3.508E+14  Parms: VV      U1      
 cg2d: Sum(rhs),rhsMax =   1.28211863278907E+01  2.93013658040582E-01
(PID.TID 0000.0001)      cg2d_init_res =   4.97598927012312E-02
(PID.TID 0000.0001)      cg2d_iters(min,last) =      -1      26
(PID.TID 0000.0001)      cg2d_last_res =   2.28251186414059E-05
(PID.TID 0000.0001) // =======================================================
(PID.TID 0000.0001) // Begin MONITOR dynamic field statistics
(PID.TID 0000.0001) // =======================================================
(PID.TID 0000.0001) %MON time_tsnumber                =                   568
(PID.TID 0000.0001) %MON time_secondsf                =   5.1120000000000E+05
(PID.TID 0000.0001) %MON dynstat_eta_max              =   1.0378168056176E+00
(PID.TID 0000.0001) %MON dynstat_eta_min              =  -1.8566779804883E+00
(PID.TID 0000.0001) %MON dynstat_eta_mean             =  -4.0557507170332E-04
(PID.TID 0000.0001) %MON dynstat_eta_sd               =   6.3326317335741E-01
(PID.TID 0000.0001) %MON dynstat_eta_del2             =   5.5520217611172E-05
(PID.TID 0000.0001) %MON dynstat_uvel_max             =   7.7079678763853E-01
(PID.TID 0000.0001) %MON dynstat_uvel_min             =  -6.0924925147065E-01
(PID.TID 0000.0001) %MON dynstat_uvel_mean            =   1.4229817082913E-03
(PID.TID 0000.0001) %MON dynstat_uvel_sd              =   1.8455031327580E-02
(PID.TID 0000.0001) %MON dynstat_uvel_del2            =   7.5688805103104E-06
(PID.TID 0000.0001) %MON dynstat_vvel_max             =   8.6127963735159E-01
(PID.TID 0000.0001) %MON dynstat_vvel_min             =  -8.6626487124154E-01
(PID.TID 0000.0001) %MON dynstat_vvel_mean            =   1.2280494964700E-03
(PID.TID 0000.0001) %MON dynstat_vvel_sd              =   1.9631644042408E-02
(PID.TID 0000.0001) %MON dynstat_vvel_del2            =   7.6375607921255E-06
(PID.TID 0000.0001) %MON dynstat_wvel_max             =   3.4897971646022E-04
(PID.TID 0000.0001) %MON dynstat_wvel_min             =  -8.4777518611202E-04
(PID.TID 0000.0001) %MON dynstat_wvel_mean            =   7.6455584593943E-09
(PID.TID 0000.0001) %MON dynstat_wvel_sd              =   1.7938113296786E-05
(PID.TID 0000.0001) %MON dynstat_wvel_del2            =   1.4637002250430E-08
(PID.TID 0000.0001) %MON dynstat_theta_max            =   3.2226864357622E+01
(PID.TID 0000.0001) %MON dynstat_theta_min            =  -2.0666048750114E+00
(PID.TID 0000.0001) %MON dynstat_theta_mean           =   3.5903171291574E+00
(PID.TID 0000.0001) %MON dynstat_theta_sd             =   4.4363723544383E+00
(PID.TID 0000.0001) %MON dynstat_theta_del2           =   9.3747437021950E-05
(PID.TID 0000.0001) %MON dynstat_salt_max             =   4.0711555773438E+01
(PID.TID 0000.0001) %MON dynstat_salt_min             =   9.4187410578428E+00
(PID.TID 0000.0001) %MON dynstat_salt_mean            =   3.4725574929054E+01
(PID.TID 0000.0001) %MON dynstat_salt_sd              =   3.7702885497230E-01
(PID.TID 0000.0001) %MON dynstat_salt_del2            =   3.6029098679907E-05
(PID.TID 0000.0001) %MON dynstat_sst_max              =   3.2226864357622E+01
(PID.TID 0000.0001) %MON dynstat_sst_min              =  -1.8128370268169E+00
(PID.TID 0000.0001) %MON dynstat_sst_mean             =   1.8479637902255E+01
(PID.TID 0000.0001) %MON dynstat_sst_sd               =   1.0216536114561E+01
(PID.TID 0000.0001) %MON dynstat_sst_del2             =   8.1208187912203E-04
(PID.TID 0000.0001) %MON dynstat_sss_max              =   3.9108141989653E+01
(PID.TID 0000.0001) %MON dynstat_sss_min              =   9.4187410578428E+00
(PID.TID 0000.0001) %MON dynstat_sss_mean             =   3.4700072379937E+01
(PID.TID 0000.0001) %MON dynstat_sss_sd               =   1.1628625376947E+00
(PID.TID 0000.0001) %MON dynstat_sss_del2             =   1.1264144376278E-03
(PID.TID 0000.0001) %MON forcing_qnet_max             =   1.1772738037109E+03
(PID.TID 0000.0001) %MON forcing_qnet_min             =  -1.2233205889088E+03
(PID.TID 0000.0001) %MON forcing_qnet_mean            =  -1.2296143847983E+01
(PID.TID 0000.0001) %MON forcing_qnet_sd              =   1.9292185513568E+02
(PID.TID 0000.0001) %MON forcing_qnet_del2            =   3.2748228074190E-01
(PID.TID 0000.0001) %MON forcing_qsw_max              =   0.0000000000000E+00
(PID.TID 0000.0001) %MON forcing_qsw_min              =  -1.0810896560472E+02
(PID.TID 0000.0001) %MON forcing_qsw_mean             =  -2.0005749366616E+01
(PID.TID 0000.0001) %MON forcing_qsw_sd               =   2.9327157481314E+01
(PID.TID 0000.0001) %MON forcing_qsw_del2             =   2.0659193264654E-02
(PID.TID 0000.0001) %MON forcing_empmr_max            =   9.2149525880814E-04
(PID.TID 0000.0001) %MON forcing_empmr_min            =  -8.5779465734959E-02
(PID.TID 0000.0001) %MON forcing_empmr_mean           =  -4.9540487499408E-06
(PID.TID 0000.0001) %MON forcing_empmr_sd             =   3.4567856838655E-04
(PID.TID 0000.0001) %MON forcing_empmr_del2           =   3.6078306246835E-06
(PID.TID 0000.0001) %MON forcing_fu_max               =   1.2700556516647E+00
(PID.TID 0000.0001) %MON forcing_fu_min               =  -1.0694325078138E+00
(PID.TID 0000.0001) %MON forcing_fu_mean              =   4.3593088288933E-03
(PID.TID 0000.0001) %MON forcing_fu_sd                =   1.0987681623659E-01
(PID.TID 0000.0001) %MON forcing_fu_del2              =   1.5610542939081E-04
(PID.TID 0000.0001) %MON forcing_fv_max               =   7.6601120829581E-01
(PID.TID 0000.0001) %MON forcing_fv_min               =  -7.1888009812769E-01
(PID.TID 0000.0001) %MON forcing_fv_mean              =  -7.1738817831784E-03
(PID.TID 0000.0001) %MON forcing_fv_sd                =   1.0136310790637E-01
(PID.TID 0000.0001) %MON forcing_fv_del2              =   1.2969949367886E-04
(PID.TID 0000.0001) %MON trAdv_CFL_u_max              =   1.2810458968891E-02
(PID.TID 0000.0001) %MON trAdv_CFL_v_max              =   1.4979587844023E-02
(PID.TID 0000.0001) %MON trAdv_CFL_w_max              =   1.9680562611190E-02
(PID.TID 0000.0001) %MON advcfl_uvel_max              =   7.4411643530166E-03
(PID.TID 0000.0001) %MON advcfl_vvel_max              =   1.5288492305998E-02
(PID.TID 0000.0001) %MON advcfl_wvel_max              =   1.6996908066931E-02
(PID.TID 0000.0001) %MON advcfl_W_hf_max              =   1.7818229791600E-02
(PID.TID 0000.0001) %MON pe_b_mean                    =   5.2750547289013E-04
(PID.TID 0000.0001) %MON ke_max                       =   3.7523237736369E-01
(PID.TID 0000.0001) %MON ke_mean                      =   3.5177225257296E-04
(PID.TID 0000.0001) %MON ke_vol                       =   1.3349977301865E+18
(PID.TID 0000.0001) %MON vort_r_min                   =  -1.6148473048332E-05
(PID.TID 0000.0001) %MON vort_r_max                   =   2.4080216786498E-05
(PID.TID 0000.0001) %MON vort_a_mean                  =  -1.9727864647440E-05
(PID.TID 0000.0001) %MON vort_a_sd                    =   7.4543009108419E-05
(PID.TID 0000.0001) %MON vort_p_mean                  =  -2.1760535861093E-05
(PID.TID 0000.0001) %MON vort_p_sd                    =   9.7246776985111E-05
(PID.TID 0000.0001) %MON surfExpan_theta_mean         =   1.8168135115526E-07
(PID.TID 0000.0001) %MON surfExpan_salt_mean          =   4.9223190609499E-08
(PID.TID 0000.0001) // =======================================================
(PID.TID 0000.0001) // End MONITOR dynamic field statistics
(PID.TID 0000.0001) // =======================================================
(PID.TID 0000.0001) // =======================================================
(PID.TID 0000.0001) // Begin MONITOR SEAICE statistics
(PID.TID 0000.0001) // =======================================================
(PID.TID 0000.0001) %MON seaice_tsnumber              =                   568
(PID.TID 0000.0001) %MON seaice_time_sec              =   5.1120000000000E+05
(PID.TID 0000.0001) %MON seaice_uice_max              =   4.0000000000000E-01
(PID.TID 0000.0001) %MON seaice_uice_min              =  -4.0000000000000E-01
(PID.TID 0000.0001) %MON seaice_uice_mean             =  -8.3054598624025E-03
(PID.TID 0000.0001) %MON seaice_uice_sd               =   1.9802383574176E-01
(PID.TID 0000.0001) %MON seaice_uice_del2             =   2.2931571122150E-04
(PID.TID 0000.0001) %MON seaice_vice_max              =   4.0000000000000E-01
(PID.TID 0000.0001) %MON seaice_vice_min              =  -4.0000000000000E-01
(PID.TID 0000.0001) %MON seaice_vice_mean             =  -2.1960776359499E-02
(PID.TID 0000.0001) %MON seaice_vice_sd               =   2.1302038025672E-01
(PID.TID 0000.0001) %MON seaice_vice_del2             =   2.3932563818061E-04
(PID.TID 0000.0001) %MON seaice_area_max              =   1.0000000000000E+00
(PID.TID 0000.0001) %MON seaice_area_min              =   0.0000000000000E+00
(PID.TID 0000.0001) %MON seaice_area_mean             =   6.6616317983072E-02
(PID.TID 0000.0001) %MON seaice_area_sd               =   2.3119883622143E-01
(PID.TID 0000.0001) %MON seaice_area_del2             =   4.0470655889399E-04
(PID.TID 0000.0001) %MON seaice_heff_max              =   2.5051116758725E+01
(PID.TID 0000.0001) %MON seaice_heff_min              =   0.0000000000000E+00
(PID.TID 0000.0001) %MON seaice_heff_mean             =   2.1344314623713E-01
(PID.TID 0000.0001) %MON seaice_heff_sd               =   1.0673783911787E+00
(PID.TID 0000.0001) %MON seaice_heff_del2             =   3.8589665274665E-03
(PID.TID 0000.0001) %MON seaice_hsnow_max             =   8.2742119771137E+00
(PID.TID 0000.0001) %MON seaice_hsnow_min             =   0.0000000000000E+00
(PID.TID 0000.0001) %MON seaice_hsnow_mean            =   2.4136784134027E-02
(PID.TID 0000.0001) %MON seaice_hsnow_sd              =   1.5643846425017E-01
(PID.TID 0000.0001) %MON seaice_hsnow_del2            =   1.2424924472886E-03
(PID.TID 0000.0001) // =======================================================
(PID.TID 0000.0001) // End MONITOR SEAICE statistics
(PID.TID 0000.0001) // =======================================================
 Computing Diagnostic #     86  oceQnet      Counter:       4   Parms: SM      U1      
 Computing Diagnostic #     87  oceQsw       Counter:       4   Parms: SM      U1      
 Computing Diagnostic #     84  oceFWflx     Counter:       4   Parms: SM      U1      
 Computing Diagnostic #     85  oceSflux     Counter:       4   Parms: SM      U1      
 Computing Diagnostic #     80  oceTAUX      Counter:       4   Parms: UU      U1      
           Vector  Mate for  oceTAUX      Diagnostic #     81  oceTAUY  exists 
 Computing Diagnostic #     81  oceTAUY      Counter:       4   Parms: VV      U1      
           Vector  Mate for  oceTAUY      Diagnostic #     80  oceTAUX  exists 
 Computing Diagnostic #     26  THETA        Counter:       4   Parms: SMR     MR      
 Computing Diagnostic #     27  SALT         Counter:       4   Parms: SMR     MR      
 Computing Diagnostic #     30  UVEL         Counter:       4   Parms: UUR     MR      
           Vector  Mate for  UVEL         Diagnostic #     31  VVEL     exists 
 Computing Diagnostic #     31  VVEL         Counter:       4   Parms: VVR     MR      
           Vector  Mate for  VVEL         Diagnostic #     30  UVEL     exists 
 Computing Diagnostic #    214  SIarea       Counter:       4   Parms: SM      M1      
 Computing Diagnostic #    217  SIheff       Counter:       4   Parms: SM      M1      
 Computing Diagnostic #    219  SIhsnow      Counter:       4   Parms: SM      M1      
 Computing Diagnostic #     83  sIceLoad     Counter:       4   Parms: SM      U1      
 Computing Diagnostic #    223  SIuice       Counter:       4   Parms: UU      M1      
           Vector  Mate for  SIuice       Diagnostic #    224  SIvice   exists 
 Computing Diagnostic #    224  SIvice       Counter:       4   Parms: VV      M1      
           Vector  Mate for  SIvice       Diagnostic #    223  SIuice   exists 
 Computing Diagnostic #    225  SItaux       Counter:       4   Parms: UU      U1      
           Vector  Mate for  SItaux       Diagnostic #    226  SItauy   exists 
 Computing Diagnostic #    226  SItauy       Counter:       4   Parms: VV      U1      
           Vector  Mate for  SItauy       Diagnostic #    225  SItaux   exists 
 Computing Diagnostic #    285  SIareaN      Counter:       4   Parms: SM      MX      
 Computing Diagnostic #    284  SIheffN      Counter:       4   Parms: SM      MX      
 Computing Diagnostic #    286  SIhsnowN     Counter:       4   Parms: SM      MX      
 Compute Stats, Diag. #    214  SIarea    vol(   0 ): 3.580E+14  Parms: SM      M1      
 Compute Stats, Diag. #    217  SIheff    vol(   0 ): 3.580E+14  Parms: SM      M1      
 Compute Stats, Diag. #    219  SIhsnow   vol(   0 ): 3.580E+14  Parms: SM      M1      
 Compute Stats, Diag. #     83  sIceLoad  vol(   0 ): 3.580E+14  Parms: SM      U1      
 Compute Stats, Diag. #    223  SIuice    vol(   0 ): 3.513E+14  Parms: UU      M1      
 Compute Stats, Diag. #    224  SIvice    vol(   0 ): 3.508E+14  Parms: VV      M1      
 Compute Stats, Diag. #    225  SItaux    vol(   0 ): 3.513E+14  Parms: UU      U1      
 Compute Stats, Diag. #    226  SItauy    vol(   0 ): 3.508E+14  Parms: VV      U1      
 cg2d: Sum(rhs),rhsMax =   1.26904410084783E+01  2.93135420401309E-01
 Compute Stats, Diag. #    214  SIarea    vol(   0 ): 3.580E+14  Parms: SM      M1      
 Compute Stats, Diag. #    217  SIheff    vol(   0 ): 3.580E+14  Parms: SM      M1      
 Compute Stats, Diag. #    219  SIhsnow   vol(   0 ): 3.580E+14  Parms: SM      M1      
 Compute Stats, Diag. #     83  sIceLoad  vol(   0 ): 3.580E+14  Parms: SM      U1      
 Compute Stats, Diag. #    223  SIuice    vol(   0 ): 3.513E+14  Parms: UU      M1      
 Compute Stats, Diag. #    224  SIvice    vol(   0 ): 3.508E+14  Parms: VV      M1      
 Compute Stats, Diag. #    225  SItaux    vol(   0 ): 3.513E+14  Parms: UU      U1      
 Compute Stats, Diag. #    226  SItauy    vol(   0 ): 3.508E+14  Parms: VV      U1      
 cg2d: Sum(rhs),rhsMax =   1.25626527598340E+01  2.93251332600391E-01
 Compute Stats, Diag. #    214  SIarea    vol(   0 ): 3.580E+14  Parms: SM      M1      
 Compute Stats, Diag. #    217  SIheff    vol(   0 ): 3.580E+14  Parms: SM      M1      
 Compute Stats, Diag. #    219  SIhsnow   vol(   0 ): 3.580E+14  Parms: SM      M1      
 Compute Stats, Diag. #     83  sIceLoad  vol(   0 ): 3.580E+14  Parms: SM      U1      
 Compute Stats, Diag. #    223  SIuice    vol(   0 ): 3.513E+14  Parms: UU      M1      
 Compute Stats, Diag. #    224  SIvice    vol(   0 ): 3.508E+14  Parms: VV      M1      
 Compute Stats, Diag. #    225  SItaux    vol(   0 ): 3.513E+14  Parms: UU      U1      
 Compute Stats, Diag. #    226  SItauy    vol(   0 ): 3.508E+14  Parms: VV      U1      
 cg2d: Sum(rhs),rhsMax =   1.24379945159074E+01  2.93361024216448E-01
 Compute Stats, Diag. #    214  SIarea    vol(   0 ): 3.580E+14  Parms: SM      M1      
 Compute Stats, Diag. #    217  SIheff    vol(   0 ): 3.580E+14  Parms: SM      M1      
 Compute Stats, Diag. #    219  SIhsnow   vol(   0 ): 3.580E+14  Parms: SM      M1      
 Compute Stats, Diag. #     83  sIceLoad  vol(   0 ): 3.580E+14  Parms: SM      U1      
 Compute Stats, Diag. #    223  SIuice    vol(   0 ): 3.513E+14  Parms: UU      M1      
 Compute Stats, Diag. #    224  SIvice    vol(   0 ): 3.508E+14  Parms: VV      M1      
 Compute Stats, Diag. #    225  SItaux    vol(   0 ): 3.513E+14  Parms: UU      U1      
 Compute Stats, Diag. #    226  SItauy    vol(   0 ): 3.508E+14  Parms: VV      U1      
 cg2d: Sum(rhs),rhsMax =   1.23195426520781E+01  2.93464934283563E-01
 Computing Diagnostic #     86  oceQnet      Counter:       4   Parms: SM      U1      
 Computing Diagnostic #     87  oceQsw       Counter:       4   Parms: SM      U1      
 Computing Diagnostic #     84  oceFWflx     Counter:       4   Parms: SM      U1      
 Computing Diagnostic #     85  oceSflux     Counter:       4   Parms: SM      U1      
 Computing Diagnostic #     80  oceTAUX      Counter:       4   Parms: UU      U1      
           Vector  Mate for  oceTAUX      Diagnostic #     81  oceTAUY  exists 
 Computing Diagnostic #     81  oceTAUY      Counter:       4   Parms: VV      U1      
           Vector  Mate for  oceTAUY      Diagnostic #     80  oceTAUX  exists 
 Computing Diagnostic #     26  THETA        Counter:       4   Parms: SMR     MR      
 Computing Diagnostic #     27  SALT         Counter:       4   Parms: SMR     MR      
 Computing Diagnostic #     30  UVEL         Counter:       4   Parms: UUR     MR      
           Vector  Mate for  UVEL         Diagnostic #     31  VVEL     exists 
 Computing Diagnostic #     31  VVEL         Counter:       4   Parms: VVR     MR      
           Vector  Mate for  VVEL         Diagnostic #     30  UVEL     exists 
 Computing Diagnostic #    214  SIarea       Counter:       4   Parms: SM      M1      
 Computing Diagnostic #    217  SIheff       Counter:       4   Parms: SM      M1      
 Computing Diagnostic #    219  SIhsnow      Counter:       4   Parms: SM      M1      
 Computing Diagnostic #     83  sIceLoad     Counter:       4   Parms: SM      U1      
 Computing Diagnostic #    223  SIuice       Counter:       4   Parms: UU      M1      
           Vector  Mate for  SIuice       Diagnostic #    224  SIvice   exists 
 Computing Diagnostic #    224  SIvice       Counter:       4   Parms: VV      M1      
           Vector  Mate for  SIvice       Diagnostic #    223  SIuice   exists 
 Computing Diagnostic #    225  SItaux       Counter:       4   Parms: UU      U1      
           Vector  Mate for  SItaux       Diagnostic #    226  SItauy   exists 
 Computing Diagnostic #    226  SItauy       Counter:       4   Parms: VV      U1      
           Vector  Mate for  SItauy       Diagnostic #    225  SItaux   exists 
 Computing Diagnostic #    285  SIareaN      Counter:       4   Parms: SM      MX      
 Computing Diagnostic #    284  SIheffN      Counter:       4   Parms: SM      MX      
 Computing Diagnostic #    286  SIhsnowN     Counter:       4   Parms: SM      MX      
 Compute Stats, Diag. #    214  SIarea    vol(   0 ): 3.580E+14  Parms: SM      M1      
 Compute Stats, Diag. #    217  SIheff    vol(   0 ): 3.580E+14  Parms: SM      M1      
 Compute Stats, Diag. #    219  SIhsnow   vol(   0 ): 3.580E+14  Parms: SM      M1      
 Compute Stats, Diag. #     83  sIceLoad  vol(   0 ): 3.580E+14  Parms: SM      U1      
 Compute Stats, Diag. #    223  SIuice    vol(   0 ): 3.513E+14  Parms: UU      M1      
 Compute Stats, Diag. #    224  SIvice    vol(   0 ): 3.508E+14  Parms: VV      M1      
 Compute Stats, Diag. #    225  SItaux    vol(   0 ): 3.513E+14  Parms: UU      U1      
 Compute Stats, Diag. #    226  SItauy    vol(   0 ): 3.508E+14  Parms: VV      U1      
 cg2d: Sum(rhs),rhsMax =   1.21956771923138E+01  2.93561059638648E-01
 Compute Stats, Diag. #    214  SIarea    vol(   0 ): 3.580E+14  Parms: SM      M1      
 Compute Stats, Diag. #    217  SIheff    vol(   0 ): 3.580E+14  Parms: SM      M1      
 Compute Stats, Diag. #    219  SIhsnow   vol(   0 ): 3.580E+14  Parms: SM      M1      
 Compute Stats, Diag. #     83  sIceLoad  vol(   0 ): 3.580E+14  Parms: SM      U1      
 Compute Stats, Diag. #    223  SIuice    vol(   0 ): 3.513E+14  Parms: UU      M1      
 Compute Stats, Diag. #    224  SIvice    vol(   0 ): 3.508E+14  Parms: VV      M1      
 Compute Stats, Diag. #    225  SItaux    vol(   0 ): 3.513E+14  Parms: UU      U1      
 Compute Stats, Diag. #    226  SItauy    vol(   0 ): 3.508E+14  Parms: VV      U1      
 cg2d: Sum(rhs),rhsMax =   1.20822695515114E+01  2.93649560158571E-01
 Compute Stats, Diag. #    214  SIarea    vol(   0 ): 3.580E+14  Parms: SM      M1      
 Compute Stats, Diag. #    217  SIheff    vol(   0 ): 3.580E+14  Parms: SM      M1      
 Compute Stats, Diag. #    219  SIhsnow   vol(   0 ): 3.580E+14  Parms: SM      M1      
 Compute Stats, Diag. #     83  sIceLoad  vol(   0 ): 3.580E+14  Parms: SM      U1      
 Compute Stats, Diag. #    223  SIuice    vol(   0 ): 3.513E+14  Parms: UU      M1      
 Compute Stats, Diag. #    224  SIvice    vol(   0 ): 3.508E+14  Parms: VV      M1      
 Compute Stats, Diag. #    225  SItaux    vol(   0 ): 3.513E+14  Parms: UU      U1      
 Compute Stats, Diag. #    226  SItauy    vol(   0 ): 3.508E+14  Parms: VV      U1      
 cg2d: Sum(rhs),rhsMax =   1.19624243544226E+01  2.93729862032893E-01
 Compute Stats, Diag. #    214  SIarea    vol(   0 ): 3.580E+14  Parms: SM      M1      
 Compute Stats, Diag. #    217  SIheff    vol(   0 ): 3.580E+14  Parms: SM      M1      
 Compute Stats, Diag. #    219  SIhsnow   vol(   0 ): 3.580E+14  Parms: SM      M1      
 Compute Stats, Diag. #     83  sIceLoad  vol(   0 ): 3.580E+14  Parms: SM      U1      
 Compute Stats, Diag. #    223  SIuice    vol(   0 ): 3.513E+14  Parms: UU      M1      
 Compute Stats, Diag. #    224  SIvice    vol(   0 ): 3.508E+14  Parms: VV      M1      
 Compute Stats, Diag. #    225  SItaux    vol(   0 ): 3.513E+14  Parms: UU      U1      
 Compute Stats, Diag. #    226  SItauy    vol(   0 ): 3.508E+14  Parms: VV      U1      
 cg2d: Sum(rhs),rhsMax =   1.18573267939200E+01  2.93801770991997E-01
(PID.TID 0000.0001)      cg2d_init_res =   4.82443717525868E-02
(PID.TID 0000.0001)      cg2d_iters(min,last) =      -1      25
(PID.TID 0000.0001)      cg2d_last_res =   2.63552558024342E-05
(PID.TID 0000.0001) // =======================================================
(PID.TID 0000.0001) // Begin MONITOR dynamic field statistics
(PID.TID 0000.0001) // =======================================================
(PID.TID 0000.0001) %MON time_tsnumber                =                   576
(PID.TID 0000.0001) %MON time_secondsf                =   5.1840000000000E+05
(PID.TID 0000.0001) %MON dynstat_eta_max              =   1.0356984341751E+00
(PID.TID 0000.0001) %MON dynstat_eta_min              =  -1.8580890506867E+00
(PID.TID 0000.0001) %MON dynstat_eta_mean             =  -3.7508511628089E-04
(PID.TID 0000.0001) %MON dynstat_eta_sd               =   6.3334791987396E-01
(PID.TID 0000.0001) %MON dynstat_eta_del2             =   5.5190470980199E-05
(PID.TID 0000.0001) %MON dynstat_uvel_max             =   7.7064899640414E-01
(PID.TID 0000.0001) %MON dynstat_uvel_min             =  -6.1045497498046E-01
(PID.TID 0000.0001) %MON dynstat_uvel_mean            =   1.4414009154627E-03
(PID.TID 0000.0001) %MON dynstat_uvel_sd              =   1.8465899358887E-02
(PID.TID 0000.0001) %MON dynstat_uvel_del2            =   7.5645600066828E-06
(PID.TID 0000.0001) %MON dynstat_vvel_max             =   8.6123069510818E-01
(PID.TID 0000.0001) %MON dynstat_vvel_min             =  -8.6791469077094E-01
(PID.TID 0000.0001) %MON dynstat_vvel_mean            =   1.2303836197786E-03
(PID.TID 0000.0001) %MON dynstat_vvel_sd              =   1.9620359888417E-02
(PID.TID 0000.0001) %MON dynstat_vvel_del2            =   7.6326749423133E-06
(PID.TID 0000.0001) %MON dynstat_wvel_max             =   3.5250599803976E-04
(PID.TID 0000.0001) %MON dynstat_wvel_min             =  -8.4069273722724E-04
(PID.TID 0000.0001) %MON dynstat_wvel_mean            =   7.1760514024353E-09
(PID.TID 0000.0001) %MON dynstat_wvel_sd              =   1.7858616449268E-05
(PID.TID 0000.0001) %MON dynstat_wvel_del2            =   1.4665785352045E-08
(PID.TID 0000.0001) %MON dynstat_theta_max            =   3.2214063585916E+01
(PID.TID 0000.0001) %MON dynstat_theta_min            =  -2.0633764339316E+00
(PID.TID 0000.0001) %MON dynstat_theta_mean           =   3.5903256659595E+00
(PID.TID 0000.0001) %MON dynstat_theta_sd             =   4.4364278535989E+00
(PID.TID 0000.0001) %MON dynstat_theta_del2           =   9.3669060738751E-05
(PID.TID 0000.0001) %MON dynstat_salt_max             =   4.0711556086922E+01
(PID.TID 0000.0001) %MON dynstat_salt_min             =   9.0111725545896E+00
(PID.TID 0000.0001) %MON dynstat_salt_mean            =   3.4725574667664E+01
(PID.TID 0000.0001) %MON dynstat_salt_sd              =   3.7703048097629E-01
(PID.TID 0000.0001) %MON dynstat_salt_del2            =   3.5816192308921E-05
(PID.TID 0000.0001) %MON dynstat_sst_max              =   3.2212661863647E+01
(PID.TID 0000.0001) %MON dynstat_sst_min              =  -1.8155513555270E+00
(PID.TID 0000.0001) %MON dynstat_sst_mean             =   1.8482827209496E+01
(PID.TID 0000.0001) %MON dynstat_sst_sd               =   1.0218941517124E+01
(PID.TID 0000.0001) %MON dynstat_sst_del2             =   8.1148780870861E-04
(PID.TID 0000.0001) %MON dynstat_sss_max              =   3.9107820290836E+01
(PID.TID 0000.0001) %MON dynstat_sss_min              =   9.0111725545896E+00
(PID.TID 0000.0001) %MON dynstat_sss_mean             =   3.4700090526999E+01
(PID.TID 0000.0001) %MON dynstat_sss_sd               =   1.1632390868067E+00
(PID.TID 0000.0001) %MON dynstat_sss_del2             =   1.1156696077161E-03
(PID.TID 0000.0001) %MON forcing_qnet_max             =   1.2092564697266E+03
(PID.TID 0000.0001) %MON forcing_qnet_min             =  -8.2524920654297E+02
(PID.TID 0000.0001) %MON forcing_qnet_mean            =  -2.4816007999431E+01
(PID.TID 0000.0001) %MON forcing_qnet_sd              =   2.0459364783589E+02
(PID.TID 0000.0001) %MON forcing_qnet_del2            =   3.3137623710397E-01
(PID.TID 0000.0001) %MON forcing_qsw_max              =   0.0000000000000E+00
(PID.TID 0000.0001) %MON forcing_qsw_min              =  -1.1127930190626E+02
(PID.TID 0000.0001) %MON forcing_qsw_mean             =  -2.1818947148894E+01
(PID.TID 0000.0001) %MON forcing_qsw_sd               =   3.0830826538976E+01
(PID.TID 0000.0001) %MON forcing_qsw_del2             =   1.9427689977091E-02
(PID.TID 0000.0001) %MON forcing_empmr_max            =   1.2674967292696E-03
(PID.TID 0000.0001) %MON forcing_empmr_min            =  -8.0980062484741E-02
(PID.TID 0000.0001) %MON forcing_empmr_mean           =  -3.8010934127267E-06
(PID.TID 0000.0001) %MON forcing_empmr_sd             =   3.3927478481585E-04
(PID.TID 0000.0001) %MON forcing_empmr_del2           =   3.5573386693556E-06
(PID.TID 0000.0001) %MON forcing_fu_max               =   1.3855974674225E+00
(PID.TID 0000.0001) %MON forcing_fu_min               =  -1.1037908309152E+00
(PID.TID 0000.0001) %MON forcing_fu_mean              =   3.7944453366408E-03
(PID.TID 0000.0001) %MON forcing_fu_sd                =   1.1113805531264E-01
(PID.TID 0000.0001) %MON forcing_fu_del2              =   1.5852874039359E-04
(PID.TID 0000.0001) %MON forcing_fv_max               =   8.3863943815231E-01
(PID.TID 0000.0001) %MON forcing_fv_min               =  -8.1989985189491E-01
(PID.TID 0000.0001) %MON forcing_fv_mean              =  -7.1771466571577E-03
(PID.TID 0000.0001) %MON forcing_fv_sd                =   1.0230184439010E-01
(PID.TID 0000.0001) %MON forcing_fv_del2              =   1.3294949968789E-04
(PID.TID 0000.0001) %MON trAdv_CFL_u_max              =   1.2697159414837E-02
(PID.TID 0000.0001) %MON trAdv_CFL_v_max              =   1.4971785345366E-02
(PID.TID 0000.0001) %MON trAdv_CFL_w_max              =   1.9474541909607E-02
(PID.TID 0000.0001) %MON advcfl_uvel_max              =   7.5307267182918E-03
(PID.TID 0000.0001) %MON advcfl_vvel_max              =   1.5287623536925E-02
(PID.TID 0000.0001) %MON advcfl_wvel_max              =   1.6989589617395E-02
(PID.TID 0000.0001) %MON advcfl_W_hf_max              =   1.7813482940451E-02
(PID.TID 0000.0001) %MON pe_b_mean                    =   5.2764663347314E-04
(PID.TID 0000.0001) %MON ke_max                       =   3.7642850764146E-01
(PID.TID 0000.0001) %MON ke_mean                      =   3.5178028935045E-04
(PID.TID 0000.0001) %MON ke_vol                       =   1.3349977414634E+18
(PID.TID 0000.0001) %MON vort_r_min                   =  -1.6136091519941E-05
(PID.TID 0000.0001) %MON vort_r_max                   =   2.4069882912401E-05
(PID.TID 0000.0001) %MON vort_a_mean                  =  -1.9727864647440E-05
(PID.TID 0000.0001) %MON vort_a_sd                    =   7.4543014857975E-05
(PID.TID 0000.0001) %MON vort_p_mean                  =  -2.1760535738330E-05
(PID.TID 0000.0001) %MON vort_p_sd                    =   9.7246720028893E-05
(PID.TID 0000.0001) %MON surfExpan_theta_mean         =   1.2562507493974E-07
(PID.TID 0000.0001) %MON surfExpan_salt_mean          =   4.4717973108913E-08
(PID.TID 0000.0001) // =======================================================
(PID.TID 0000.0001) // End MONITOR dynamic field statistics
(PID.TID 0000.0001) // =======================================================
(PID.TID 0000.0001) // =======================================================
(PID.TID 0000.0001) // Begin MONITOR SEAICE statistics
(PID.TID 0000.0001) // =======================================================
(PID.TID 0000.0001) %MON seaice_tsnumber              =                   576
(PID.TID 0000.0001) %MON seaice_time_sec              =   5.1840000000000E+05
(PID.TID 0000.0001) %MON seaice_uice_max              =   4.0000000000000E-01
(PID.TID 0000.0001) %MON seaice_uice_min              =  -4.0000000000000E-01
(PID.TID 0000.0001) %MON seaice_uice_mean             =  -8.3054598624025E-03
(PID.TID 0000.0001) %MON seaice_uice_sd               =   1.9802383574176E-01
(PID.TID 0000.0001) %MON seaice_uice_del2             =   2.2931571122150E-04
(PID.TID 0000.0001) %MON seaice_vice_max              =   4.0000000000000E-01
(PID.TID 0000.0001) %MON seaice_vice_min              =  -4.0000000000000E-01
(PID.TID 0000.0001) %MON seaice_vice_mean             =  -2.1960776359499E-02
(PID.TID 0000.0001) %MON seaice_vice_sd               =   2.1302038025672E-01
(PID.TID 0000.0001) %MON seaice_vice_del2             =   2.3932563818061E-04
(PID.TID 0000.0001) %MON seaice_area_max              =   1.0000000000000E+00
(PID.TID 0000.0001) %MON seaice_area_min              =   0.0000000000000E+00
(PID.TID 0000.0001) %MON seaice_area_mean             =   6.6583315218849E-02
(PID.TID 0000.0001) %MON seaice_area_sd               =   2.3114057560781E-01
(PID.TID 0000.0001) %MON seaice_area_del2             =   4.0398447813061E-04
(PID.TID 0000.0001) %MON seaice_heff_max              =   2.5049132906599E+01
(PID.TID 0000.0001) %MON seaice_heff_min              =   0.0000000000000E+00
(PID.TID 0000.0001) %MON seaice_heff_mean             =   2.1340588128956E-01
(PID.TID 0000.0001) %MON seaice_heff_sd               =   1.0673389329672E+00
(PID.TID 0000.0001) %MON seaice_heff_del2             =   3.8581625858533E-03
(PID.TID 0000.0001) %MON seaice_hsnow_max             =   8.2735640251485E+00
(PID.TID 0000.0001) %MON seaice_hsnow_min             =   0.0000000000000E+00
(PID.TID 0000.0001) %MON seaice_hsnow_mean            =   2.4133548947589E-02
(PID.TID 0000.0001) %MON seaice_hsnow_sd              =   1.5643023749866E-01
(PID.TID 0000.0001) %MON seaice_hsnow_del2            =   1.2423368044432E-03
(PID.TID 0000.0001) // =======================================================
(PID.TID 0000.0001) // End MONITOR SEAICE statistics
(PID.TID 0000.0001) // =======================================================
 Computing Diagnostic #     86  oceQnet      Counter:       4   Parms: SM      U1      
 Computing Diagnostic #     87  oceQsw       Counter:       4   Parms: SM      U1      
 Computing Diagnostic #     84  oceFWflx     Counter:       4   Parms: SM      U1      
 Computing Diagnostic #     85  oceSflux     Counter:       4   Parms: SM      U1      
 Computing Diagnostic #     80  oceTAUX      Counter:       4   Parms: UU      U1      
           Vector  Mate for  oceTAUX      Diagnostic #     81  oceTAUY  exists 
 Computing Diagnostic #     81  oceTAUY      Counter:       4   Parms: VV      U1      
           Vector  Mate for  oceTAUY      Diagnostic #     80  oceTAUX  exists 
 Computing Diagnostic #     26  THETA        Counter:       4   Parms: SMR     MR      
 Computing Diagnostic #     27  SALT         Counter:       4   Parms: SMR     MR      
 Computing Diagnostic #     30  UVEL         Counter:       4   Parms: UUR     MR      
           Vector  Mate for  UVEL         Diagnostic #     31  VVEL     exists 
 Computing Diagnostic #     31  VVEL         Counter:       4   Parms: VVR     MR      
           Vector  Mate for  VVEL         Diagnostic #     30  UVEL     exists 
 Computing Diagnostic #    214  SIarea       Counter:       4   Parms: SM      M1      
 Computing Diagnostic #    217  SIheff       Counter:       4   Parms: SM      M1      
 Computing Diagnostic #    219  SIhsnow      Counter:       4   Parms: SM      M1      
 Computing Diagnostic #     83  sIceLoad     Counter:       4   Parms: SM      U1      
 Computing Diagnostic #    223  SIuice       Counter:       4   Parms: UU      M1      
           Vector  Mate for  SIuice       Diagnostic #    224  SIvice   exists 
 Computing Diagnostic #    224  SIvice       Counter:       4   Parms: VV      M1      
           Vector  Mate for  SIvice       Diagnostic #    223  SIuice   exists 
 Computing Diagnostic #    225  SItaux       Counter:       4   Parms: UU      U1      
           Vector  Mate for  SItaux       Diagnostic #    226  SItauy   exists 
 Computing Diagnostic #    226  SItauy       Counter:       4   Parms: VV      U1      
           Vector  Mate for  SItauy       Diagnostic #    225  SItaux   exists 
 Computing Diagnostic #    285  SIareaN      Counter:       4   Parms: SM      MX      
 Computing Diagnostic #    284  SIheffN      Counter:       4   Parms: SM      MX      
 Computing Diagnostic #    286  SIhsnowN     Counter:       4   Parms: SM      MX      
 Compute Stats, Diag. #    214  SIarea    vol(   0 ): 3.580E+14  Parms: SM      M1      
 Compute Stats, Diag. #    217  SIheff    vol(   0 ): 3.580E+14  Parms: SM      M1      
 Compute Stats, Diag. #    219  SIhsnow   vol(   0 ): 3.580E+14  Parms: SM      M1      
 Compute Stats, Diag. #     83  sIceLoad  vol(   0 ): 3.580E+14  Parms: SM      U1      
 Compute Stats, Diag. #    223  SIuice    vol(   0 ): 3.513E+14  Parms: UU      M1      
 Compute Stats, Diag. #    224  SIvice    vol(   0 ): 3.508E+14  Parms: VV      M1      
 Compute Stats, Diag. #    225  SItaux    vol(   0 ): 3.513E+14  Parms: UU      U1      
 Compute Stats, Diag. #    226  SItauy    vol(   0 ): 3.508E+14  Parms: VV      U1      
 cg2d: Sum(rhs),rhsMax =   1.17617029814040E+01  2.93865352722155E-01
 Compute Stats, Diag. #    214  SIarea    vol(   0 ): 3.580E+14  Parms: SM      M1      
 Compute Stats, Diag. #    217  SIheff    vol(   0 ): 3.580E+14  Parms: SM      M1      
 Compute Stats, Diag. #    219  SIhsnow   vol(   0 ): 3.580E+14  Parms: SM      M1      
 Compute Stats, Diag. #     83  sIceLoad  vol(   0 ): 3.580E+14  Parms: SM      U1      
 Compute Stats, Diag. #    223  SIuice    vol(   0 ): 3.513E+14  Parms: UU      M1      
 Compute Stats, Diag. #    224  SIvice    vol(   0 ): 3.508E+14  Parms: VV      M1      
 Compute Stats, Diag. #    225  SItaux    vol(   0 ): 3.513E+14  Parms: UU      U1      
 Compute Stats, Diag. #    226  SItauy    vol(   0 ): 3.508E+14  Parms: VV      U1      
 cg2d: Sum(rhs),rhsMax =   1.16676553518982E+01  2.93920540824968E-01
 Compute Stats, Diag. #    214  SIarea    vol(   0 ): 3.580E+14  Parms: SM      M1      
 Compute Stats, Diag. #    217  SIheff    vol(   0 ): 3.580E+14  Parms: SM      M1      
 Compute Stats, Diag. #    219  SIhsnow   vol(   0 ): 3.580E+14  Parms: SM      M1      
 Compute Stats, Diag. #     83  sIceLoad  vol(   0 ): 3.580E+14  Parms: SM      U1      
 Compute Stats, Diag. #    223  SIuice    vol(   0 ): 3.513E+14  Parms: UU      M1      
 Compute Stats, Diag. #    224  SIvice    vol(   0 ): 3.508E+14  Parms: VV      M1      
 Compute Stats, Diag. #    225  SItaux    vol(   0 ): 3.513E+14  Parms: UU      U1      
 Compute Stats, Diag. #    226  SItauy    vol(   0 ): 3.508E+14  Parms: VV      U1      
 cg2d: Sum(rhs),rhsMax =   1.15798001842554E+01  2.93966777069490E-01
 Compute Stats, Diag. #    214  SIarea    vol(   0 ): 3.580E+14  Parms: SM      M1      
 Compute Stats, Diag. #    217  SIheff    vol(   0 ): 3.580E+14  Parms: SM      M1      
 Compute Stats, Diag. #    219  SIhsnow   vol(   0 ): 3.580E+14  Parms: SM      M1      
 Compute Stats, Diag. #     83  sIceLoad  vol(   0 ): 3.580E+14  Parms: SM      U1      
 Compute Stats, Diag. #    223  SIuice    vol(   0 ): 3.513E+14  Parms: UU      M1      
 Compute Stats, Diag. #    224  SIvice    vol(   0 ): 3.508E+14  Parms: VV      M1      
 Compute Stats, Diag. #    225  SItaux    vol(   0 ): 3.513E+14  Parms: UU      U1      
 Compute Stats, Diag. #    226  SItauy    vol(   0 ): 3.508E+14  Parms: VV      U1      
 cg2d: Sum(rhs),rhsMax =   1.14924990818149E+01  2.94003030244489E-01
 Computing Diagnostic #     86  oceQnet      Counter:       4   Parms: SM      U1      
 Computing Diagnostic #     87  oceQsw       Counter:       4   Parms: SM      U1      
 Computing Diagnostic #     84  oceFWflx     Counter:       4   Parms: SM      U1      
 Computing Diagnostic #     85  oceSflux     Counter:       4   Parms: SM      U1      
 Computing Diagnostic #     80  oceTAUX      Counter:       4   Parms: UU      U1      
           Vector  Mate for  oceTAUX      Diagnostic #     81  oceTAUY  exists 
 Computing Diagnostic #     81  oceTAUY      Counter:       4   Parms: VV      U1      
           Vector  Mate for  oceTAUY      Diagnostic #     80  oceTAUX  exists 
 Computing Diagnostic #     26  THETA        Counter:       4   Parms: SMR     MR      
 Computing Diagnostic #     27  SALT         Counter:       4   Parms: SMR     MR      
 Computing Diagnostic #     30  UVEL         Counter:       4   Parms: UUR     MR      
           Vector  Mate for  UVEL         Diagnostic #     31  VVEL     exists 
 Computing Diagnostic #     31  VVEL         Counter:       4   Parms: VVR     MR      
           Vector  Mate for  VVEL         Diagnostic #     30  UVEL     exists 
 Computing Diagnostic #    214  SIarea       Counter:       4   Parms: SM      M1      
 Computing Diagnostic #    217  SIheff       Counter:       4   Parms: SM      M1      
 Computing Diagnostic #    219  SIhsnow      Counter:       4   Parms: SM      M1      
 Computing Diagnostic #     83  sIceLoad     Counter:       4   Parms: SM      U1      
 Computing Diagnostic #    223  SIuice       Counter:       4   Parms: UU      M1      
           Vector  Mate for  SIuice       Diagnostic #    224  SIvice   exists 
 Computing Diagnostic #    224  SIvice       Counter:       4   Parms: VV      M1      
           Vector  Mate for  SIvice       Diagnostic #    223  SIuice   exists 
 Computing Diagnostic #    225  SItaux       Counter:       4   Parms: UU      U1      
           Vector  Mate for  SItaux       Diagnostic #    226  SItauy   exists 
 Computing Diagnostic #    226  SItauy       Counter:       4   Parms: VV      U1      
           Vector  Mate for  SItauy       Diagnostic #    225  SItaux   exists 
 Computing Diagnostic #    285  SIareaN      Counter:       4   Parms: SM      MX      
 Computing Diagnostic #    284  SIheffN      Counter:       4   Parms: SM      MX      
 Computing Diagnostic #    286  SIhsnowN     Counter:       4   Parms: SM      MX      
 Compute Stats, Diag. #    214  SIarea    vol(   0 ): 3.580E+14  Parms: SM      M1      
 Compute Stats, Diag. #    217  SIheff    vol(   0 ): 3.580E+14  Parms: SM      M1      
 Compute Stats, Diag. #    219  SIhsnow   vol(   0 ): 3.580E+14  Parms: SM      M1      
 Compute Stats, Diag. #     83  sIceLoad  vol(   0 ): 3.580E+14  Parms: SM      U1      
 Compute Stats, Diag. #    223  SIuice    vol(   0 ): 3.513E+14  Parms: UU      M1      
 Compute Stats, Diag. #    224  SIvice    vol(   0 ): 3.508E+14  Parms: VV      M1      
 Compute Stats, Diag. #    225  SItaux    vol(   0 ): 3.513E+14  Parms: UU      U1      
 Compute Stats, Diag. #    226  SItauy    vol(   0 ): 3.508E+14  Parms: VV      U1      
 cg2d: Sum(rhs),rhsMax =   1.14080473314695E+01  2.94030001634553E-01
 Compute Stats, Diag. #    214  SIarea    vol(   0 ): 3.580E+14  Parms: SM      M1      
 Compute Stats, Diag. #    217  SIheff    vol(   0 ): 3.580E+14  Parms: SM      M1      
 Compute Stats, Diag. #    219  SIhsnow   vol(   0 ): 3.580E+14  Parms: SM      M1      
 Compute Stats, Diag. #     83  sIceLoad  vol(   0 ): 3.580E+14  Parms: SM      U1      
 Compute Stats, Diag. #    223  SIuice    vol(   0 ): 3.513E+14  Parms: UU      M1      
 Compute Stats, Diag. #    224  SIvice    vol(   0 ): 3.508E+14  Parms: VV      M1      
 Compute Stats, Diag. #    225  SItaux    vol(   0 ): 3.513E+14  Parms: UU      U1      
 Compute Stats, Diag. #    226  SItauy    vol(   0 ): 3.508E+14  Parms: VV      U1      
 cg2d: Sum(rhs),rhsMax =   1.13328277851337E+01  2.94047843784948E-01
 Compute Stats, Diag. #    214  SIarea    vol(   0 ): 3.580E+14  Parms: SM      M1      
 Compute Stats, Diag. #    217  SIheff    vol(   0 ): 3.580E+14  Parms: SM      M1      
 Compute Stats, Diag. #    219  SIhsnow   vol(   0 ): 3.580E+14  Parms: SM      M1      
 Compute Stats, Diag. #     83  sIceLoad  vol(   0 ): 3.580E+14  Parms: SM      U1      
 Compute Stats, Diag. #    223  SIuice    vol(   0 ): 3.513E+14  Parms: UU      M1      
 Compute Stats, Diag. #    224  SIvice    vol(   0 ): 3.508E+14  Parms: VV      M1      
 Compute Stats, Diag. #    225  SItaux    vol(   0 ): 3.513E+14  Parms: UU      U1      
 Compute Stats, Diag. #    226  SItauy    vol(   0 ): 3.508E+14  Parms: VV      U1      
 cg2d: Sum(rhs),rhsMax =   1.12681809028232E+01  2.94057602962790E-01
 Compute Stats, Diag. #    214  SIarea    vol(   0 ): 3.580E+14  Parms: SM      M1      
 Compute Stats, Diag. #    217  SIheff    vol(   0 ): 3.580E+14  Parms: SM      M1      
 Compute Stats, Diag. #    219  SIhsnow   vol(   0 ): 3.580E+14  Parms: SM      M1      
 Compute Stats, Diag. #     83  sIceLoad  vol(   0 ): 3.580E+14  Parms: SM      U1      
 Compute Stats, Diag. #    223  SIuice    vol(   0 ): 3.513E+14  Parms: UU      M1      
 Compute Stats, Diag. #    224  SIvice    vol(   0 ): 3.508E+14  Parms: VV      M1      
 Compute Stats, Diag. #    225  SItaux    vol(   0 ): 3.513E+14  Parms: UU      U1      
 Compute Stats, Diag. #    226  SItauy    vol(   0 ): 3.508E+14  Parms: VV      U1      
 cg2d: Sum(rhs),rhsMax =   1.12087136534910E+01  2.94059180553094E-01
(PID.TID 0000.0001)      cg2d_init_res =   4.73466108945984E-02
(PID.TID 0000.0001)      cg2d_iters(min,last) =      -1      25
(PID.TID 0000.0001)      cg2d_last_res =   2.20825729030669E-05
(PID.TID 0000.0001) // =======================================================
(PID.TID 0000.0001) // Begin MONITOR dynamic field statistics
(PID.TID 0000.0001) // =======================================================
(PID.TID 0000.0001) %MON time_tsnumber                =                   584
(PID.TID 0000.0001) %MON time_secondsf                =   5.2560000000000E+05
(PID.TID 0000.0001) %MON dynstat_eta_max              =   1.0338796866994E+00
(PID.TID 0000.0001) %MON dynstat_eta_min              =  -1.8586202798207E+00
(PID.TID 0000.0001) %MON dynstat_eta_mean             =  -3.5456741111616E-04
(PID.TID 0000.0001) %MON dynstat_eta_sd               =   6.3337104961109E-01
(PID.TID 0000.0001) %MON dynstat_eta_del2             =   5.4770170693012E-05
(PID.TID 0000.0001) %MON dynstat_uvel_max             =   7.6952647173308E-01
(PID.TID 0000.0001) %MON dynstat_uvel_min             =  -6.1166894917608E-01
(PID.TID 0000.0001) %MON dynstat_uvel_mean            =   1.4523291945324E-03
(PID.TID 0000.0001) %MON dynstat_uvel_sd              =   1.8477375621675E-02
(PID.TID 0000.0001) %MON dynstat_uvel_del2            =   7.5518400915029E-06
(PID.TID 0000.0001) %MON dynstat_vvel_max             =   8.6232626082298E-01
(PID.TID 0000.0001) %MON dynstat_vvel_min             =  -8.6943117213845E-01
(PID.TID 0000.0001) %MON dynstat_vvel_mean            =   1.2264914788292E-03
(PID.TID 0000.0001) %MON dynstat_vvel_sd              =   1.9621806952978E-02
(PID.TID 0000.0001) %MON dynstat_vvel_del2            =   7.6238573729932E-06
(PID.TID 0000.0001) %MON dynstat_wvel_max             =   3.4990999310383E-04
(PID.TID 0000.0001) %MON dynstat_wvel_min             =  -8.3029447649259E-04
(PID.TID 0000.0001) %MON dynstat_wvel_mean            =   7.2886986646504E-09
(PID.TID 0000.0001) %MON dynstat_wvel_sd              =   1.7791054297535E-05
(PID.TID 0000.0001) %MON dynstat_wvel_del2            =   1.4669019499947E-08
(PID.TID 0000.0001) %MON dynstat_theta_max            =   3.2204189257662E+01
(PID.TID 0000.0001) %MON dynstat_theta_min            =  -2.0598604728870E+00
(PID.TID 0000.0001) %MON dynstat_theta_mean           =   3.5903405639957E+00
(PID.TID 0000.0001) %MON dynstat_theta_sd             =   4.4365130904759E+00
(PID.TID 0000.0001) %MON dynstat_theta_del2           =   9.3603146161783E-05
(PID.TID 0000.0001) %MON dynstat_salt_max             =   4.0711556315167E+01
(PID.TID 0000.0001) %MON dynstat_salt_min             =   8.9085604673104E+00
(PID.TID 0000.0001) %MON dynstat_salt_mean            =   3.4725574495404E+01
(PID.TID 0000.0001) %MON dynstat_salt_sd              =   3.7703107944666E-01
(PID.TID 0000.0001) %MON dynstat_salt_del2            =   3.5554769889302E-05
(PID.TID 0000.0001) %MON dynstat_sst_max              =   3.2201372967582E+01
(PID.TID 0000.0001) %MON dynstat_sst_min              =  -1.8162139641176E+00
(PID.TID 0000.0001) %MON dynstat_sst_mean             =   1.8486952229472E+01
(PID.TID 0000.0001) %MON dynstat_sst_sd               =   1.0221913308006E+01
(PID.TID 0000.0001) %MON dynstat_sst_del2             =   8.1166355862113E-04
(PID.TID 0000.0001) %MON dynstat_sss_max              =   3.9107540352157E+01
(PID.TID 0000.0001) %MON dynstat_sss_min              =   8.9085604673104E+00
(PID.TID 0000.0001) %MON dynstat_sss_mean             =   3.4700131274618E+01
(PID.TID 0000.0001) %MON dynstat_sss_sd               =   1.1635059904435E+00
(PID.TID 0000.0001) %MON dynstat_sss_del2             =   1.1022437818366E-03
(PID.TID 0000.0001) %MON forcing_qnet_max             =   8.9969561767578E+02
(PID.TID 0000.0001) %MON forcing_qnet_min             =  -1.0176723022461E+03
(PID.TID 0000.0001) %MON forcing_qnet_mean            =  -3.4391872921977E+01
(PID.TID 0000.0001) %MON forcing_qnet_sd              =   2.0799884138850E+02
(PID.TID 0000.0001) %MON forcing_qnet_del2            =   3.5120808270762E-01
(PID.TID 0000.0001) %MON forcing_qsw_max              =   0.0000000000000E+00
(PID.TID 0000.0001) %MON forcing_qsw_min              =  -1.0940079872638E+02
(PID.TID 0000.0001) %MON forcing_qsw_mean             =  -2.2689372924860E+01
(PID.TID 0000.0001) %MON forcing_qsw_sd               =   3.0581244870291E+01
(PID.TID 0000.0001) %MON forcing_qsw_del2             =   1.9850805197116E-02
(PID.TID 0000.0001) %MON forcing_empmr_max            =   1.8024360761046E-03
(PID.TID 0000.0001) %MON forcing_empmr_min            =  -4.8989228904247E-02
(PID.TID 0000.0001) %MON forcing_empmr_mean           =  -2.1507689486650E-06
(PID.TID 0000.0001) %MON forcing_empmr_sd             =   2.3249773926651E-04
(PID.TID 0000.0001) %MON forcing_empmr_del2           =   2.3211878842407E-06
(PID.TID 0000.0001) %MON forcing_fu_max               =   1.2936413288116E+00
(PID.TID 0000.0001) %MON forcing_fu_min               =  -1.0994821800753E+00
(PID.TID 0000.0001) %MON forcing_fu_mean              =   3.0787254599046E-03
(PID.TID 0000.0001) %MON forcing_fu_sd                =   1.1157590108917E-01
(PID.TID 0000.0001) %MON forcing_fu_del2              =   1.5959831250067E-04
(PID.TID 0000.0001) %MON forcing_fv_max               =   9.0901616215706E-01
(PID.TID 0000.0001) %MON forcing_fv_min               =  -8.3836457427712E-01
(PID.TID 0000.0001) %MON forcing_fv_mean              =  -6.7595621400395E-03
(PID.TID 0000.0001) %MON forcing_fv_sd                =   1.0325254246398E-01
(PID.TID 0000.0001) %MON forcing_fv_del2              =   1.3549183137596E-04
(PID.TID 0000.0001) %MON trAdv_CFL_u_max              =   1.2792476657713E-02
(PID.TID 0000.0001) %MON trAdv_CFL_v_max              =   1.4986647434726E-02
(PID.TID 0000.0001) %MON trAdv_CFL_w_max              =   1.9383395313184E-02
(PID.TID 0000.0001) %MON advcfl_uvel_max              =   7.5587980930913E-03
(PID.TID 0000.0001) %MON advcfl_vvel_max              =   1.5307070818940E-02
(PID.TID 0000.0001) %MON advcfl_wvel_max              =   1.6962720782452E-02
(PID.TID 0000.0001) %MON advcfl_W_hf_max              =   1.7790094026746E-02
(PID.TID 0000.0001) %MON pe_b_mean                    =   5.2768515045829E-04
(PID.TID 0000.0001) %MON ke_max                       =   3.7808722778526E-01
(PID.TID 0000.0001) %MON ke_mean                      =   3.5202270323604E-04
(PID.TID 0000.0001) %MON ke_vol                       =   1.3349977493258E+18
(PID.TID 0000.0001) %MON vort_r_min                   =  -1.6142372593152E-05
(PID.TID 0000.0001) %MON vort_r_max                   =   2.4091075691415E-05
(PID.TID 0000.0001) %MON vort_a_mean                  =  -1.9727864647440E-05
(PID.TID 0000.0001) %MON vort_a_sd                    =   7.4543019613084E-05
(PID.TID 0000.0001) %MON vort_p_mean                  =  -2.1760535640624E-05
(PID.TID 0000.0001) %MON vort_p_sd                    =   9.7246656413312E-05
(PID.TID 0000.0001) %MON surfExpan_theta_mean         =   5.7939993428480E-08
(PID.TID 0000.0001) %MON surfExpan_salt_mean          =   2.3770555904311E-08
(PID.TID 0000.0001) // =======================================================
(PID.TID 0000.0001) // End MONITOR dynamic field statistics
(PID.TID 0000.0001) // =======================================================
(PID.TID 0000.0001) // =======================================================
(PID.TID 0000.0001) // Begin MONITOR SEAICE statistics
(PID.TID 0000.0001) // =======================================================
(PID.TID 0000.0001) %MON seaice_tsnumber              =                   584
(PID.TID 0000.0001) %MON seaice_time_sec              =   5.2560000000000E+05
(PID.TID 0000.0001) %MON seaice_uice_max              =   4.0000000000000E-01
(PID.TID 0000.0001) %MON seaice_uice_min              =  -4.0000000000000E-01
(PID.TID 0000.0001) %MON seaice_uice_mean             =  -8.3054598624025E-03
(PID.TID 0000.0001) %MON seaice_uice_sd               =   1.9802383574176E-01
(PID.TID 0000.0001) %MON seaice_uice_del2             =   2.2931571122150E-04
(PID.TID 0000.0001) %MON seaice_vice_max              =   4.0000000000000E-01
(PID.TID 0000.0001) %MON seaice_vice_min              =  -4.0000000000000E-01
(PID.TID 0000.0001) %MON seaice_vice_mean             =  -2.1960776359499E-02
(PID.TID 0000.0001) %MON seaice_vice_sd               =   2.1302038025672E-01
(PID.TID 0000.0001) %MON seaice_vice_del2             =   2.3932563818061E-04
(PID.TID 0000.0001) %MON seaice_area_max              =   1.0000000000000E+00
(PID.TID 0000.0001) %MON seaice_area_min              =   0.0000000000000E+00
(PID.TID 0000.0001) %MON seaice_area_mean             =   6.6551802034674E-02
(PID.TID 0000.0001) %MON seaice_area_sd               =   2.3108296996188E-01
(PID.TID 0000.0001) %MON seaice_area_del2             =   4.0327416801641E-04
(PID.TID 0000.0001) %MON seaice_heff_max              =   2.5047269084025E+01
(PID.TID 0000.0001) %MON seaice_heff_min              =   0.0000000000000E+00
(PID.TID 0000.0001) %MON seaice_heff_mean             =   2.1336971377621E-01
(PID.TID 0000.0001) %MON seaice_heff_sd               =   1.0673005087212E+00
(PID.TID 0000.0001) %MON seaice_heff_del2             =   3.8573666087189E-03
(PID.TID 0000.0001) %MON seaice_hsnow_max             =   8.2729602051550E+00
(PID.TID 0000.0001) %MON seaice_hsnow_min             =   0.0000000000000E+00
(PID.TID 0000.0001) %MON seaice_hsnow_mean            =   2.4131402758590E-02
(PID.TID 0000.0001) %MON seaice_hsnow_sd              =   1.5642309707898E-01
(PID.TID 0000.0001) %MON seaice_hsnow_del2            =   1.2421802340658E-03
(PID.TID 0000.0001) // =======================================================
(PID.TID 0000.0001) // End MONITOR SEAICE statistics
(PID.TID 0000.0001) // =======================================================
 Computing Diagnostic #     86  oceQnet      Counter:       4   Parms: SM      U1      
 Computing Diagnostic #     87  oceQsw       Counter:       4   Parms: SM      U1      
 Computing Diagnostic #     84  oceFWflx     Counter:       4   Parms: SM      U1      
 Computing Diagnostic #     85  oceSflux     Counter:       4   Parms: SM      U1      
 Computing Diagnostic #     80  oceTAUX      Counter:       4   Parms: UU      U1      
           Vector  Mate for  oceTAUX      Diagnostic #     81  oceTAUY  exists 
 Computing Diagnostic #     81  oceTAUY      Counter:       4   Parms: VV      U1      
           Vector  Mate for  oceTAUY      Diagnostic #     80  oceTAUX  exists 
 Computing Diagnostic #     26  THETA        Counter:       4   Parms: SMR     MR      
 Computing Diagnostic #     27  SALT         Counter:       4   Parms: SMR     MR      
 Computing Diagnostic #     30  UVEL         Counter:       4   Parms: UUR     MR      
           Vector  Mate for  UVEL         Diagnostic #     31  VVEL     exists 
 Computing Diagnostic #     31  VVEL         Counter:       4   Parms: VVR     MR      
           Vector  Mate for  VVEL         Diagnostic #     30  UVEL     exists 
 Computing Diagnostic #    214  SIarea       Counter:       4   Parms: SM      M1      
 Computing Diagnostic #    217  SIheff       Counter:       4   Parms: SM      M1      
 Computing Diagnostic #    219  SIhsnow      Counter:       4   Parms: SM      M1      
 Computing Diagnostic #     83  sIceLoad     Counter:       4   Parms: SM      U1      
 Computing Diagnostic #    223  SIuice       Counter:       4   Parms: UU      M1      
           Vector  Mate for  SIuice       Diagnostic #    224  SIvice   exists 
 Computing Diagnostic #    224  SIvice       Counter:       4   Parms: VV      M1      
           Vector  Mate for  SIvice       Diagnostic #    223  SIuice   exists 
 Computing Diagnostic #    225  SItaux       Counter:       4   Parms: UU      U1      
           Vector  Mate for  SItaux       Diagnostic #    226  SItauy   exists 
 Computing Diagnostic #    226  SItauy       Counter:       4   Parms: VV      U1      
           Vector  Mate for  SItauy       Diagnostic #    225  SItaux   exists 
 Computing Diagnostic #    285  SIareaN      Counter:       4   Parms: SM      MX      
 Computing Diagnostic #    284  SIheffN      Counter:       4   Parms: SM      MX      
 Computing Diagnostic #    286  SIhsnowN     Counter:       4   Parms: SM      MX      
 Compute Stats, Diag. #    214  SIarea    vol(   0 ): 3.580E+14  Parms: SM      M1      
 Compute Stats, Diag. #    217  SIheff    vol(   0 ): 3.580E+14  Parms: SM      M1      
 Compute Stats, Diag. #    219  SIhsnow   vol(   0 ): 3.580E+14  Parms: SM      M1      
 Compute Stats, Diag. #     83  sIceLoad  vol(   0 ): 3.580E+14  Parms: SM      U1      
 Compute Stats, Diag. #    223  SIuice    vol(   0 ): 3.513E+14  Parms: UU      M1      
 Compute Stats, Diag. #    224  SIvice    vol(   0 ): 3.508E+14  Parms: VV      M1      
 Compute Stats, Diag. #    225  SItaux    vol(   0 ): 3.513E+14  Parms: UU      U1      
 Compute Stats, Diag. #    226  SItauy    vol(   0 ): 3.508E+14  Parms: VV      U1      
 cg2d: Sum(rhs),rhsMax =   1.11414315731089E+01  2.94051573914547E-01
 Compute Stats, Diag. #    214  SIarea    vol(   0 ): 3.580E+14  Parms: SM      M1      
 Compute Stats, Diag. #    217  SIheff    vol(   0 ): 3.580E+14  Parms: SM      M1      
 Compute Stats, Diag. #    219  SIhsnow   vol(   0 ): 3.580E+14  Parms: SM      M1      
 Compute Stats, Diag. #     83  sIceLoad  vol(   0 ): 3.580E+14  Parms: SM      U1      
 Compute Stats, Diag. #    223  SIuice    vol(   0 ): 3.513E+14  Parms: UU      M1      
 Compute Stats, Diag. #    224  SIvice    vol(   0 ): 3.508E+14  Parms: VV      M1      
 Compute Stats, Diag. #    225  SItaux    vol(   0 ): 3.513E+14  Parms: UU      U1      
 Compute Stats, Diag. #    226  SItauy    vol(   0 ): 3.508E+14  Parms: VV      U1      
 cg2d: Sum(rhs),rhsMax =   1.10902621151400E+01  2.94034349192102E-01
 Compute Stats, Diag. #    214  SIarea    vol(   0 ): 3.580E+14  Parms: SM      M1      
 Compute Stats, Diag. #    217  SIheff    vol(   0 ): 3.580E+14  Parms: SM      M1      
 Compute Stats, Diag. #    219  SIhsnow   vol(   0 ): 3.580E+14  Parms: SM      M1      
 Compute Stats, Diag. #     83  sIceLoad  vol(   0 ): 3.580E+14  Parms: SM      U1      
 Compute Stats, Diag. #    223  SIuice    vol(   0 ): 3.513E+14  Parms: UU      M1      
 Compute Stats, Diag. #    224  SIvice    vol(   0 ): 3.508E+14  Parms: VV      M1      
 Compute Stats, Diag. #    225  SItaux    vol(   0 ): 3.513E+14  Parms: UU      U1      
 Compute Stats, Diag. #    226  SItauy    vol(   0 ): 3.508E+14  Parms: VV      U1      
 cg2d: Sum(rhs),rhsMax =   1.10455274475754E+01  2.94012303549210E-01
 Compute Stats, Diag. #    214  SIarea    vol(   0 ): 3.580E+14  Parms: SM      M1      
 Compute Stats, Diag. #    217  SIheff    vol(   0 ): 3.580E+14  Parms: SM      M1      
 Compute Stats, Diag. #    219  SIhsnow   vol(   0 ): 3.580E+14  Parms: SM      M1      
 Compute Stats, Diag. #     83  sIceLoad  vol(   0 ): 3.580E+14  Parms: SM      U1      
 Compute Stats, Diag. #    223  SIuice    vol(   0 ): 3.513E+14  Parms: UU      M1      
 Compute Stats, Diag. #    224  SIvice    vol(   0 ): 3.508E+14  Parms: VV      M1      
 Compute Stats, Diag. #    225  SItaux    vol(   0 ): 3.513E+14  Parms: UU      U1      
 Compute Stats, Diag. #    226  SItauy    vol(   0 ): 3.508E+14  Parms: VV      U1      
 cg2d: Sum(rhs),rhsMax =   1.09998843063005E+01  2.93984738063948E-01
 Computing Diagnostic #     86  oceQnet      Counter:       4   Parms: SM      U1      
 Computing Diagnostic #     87  oceQsw       Counter:       4   Parms: SM      U1      
 Computing Diagnostic #     84  oceFWflx     Counter:       4   Parms: SM      U1      
 Computing Diagnostic #     85  oceSflux     Counter:       4   Parms: SM      U1      
 Computing Diagnostic #     80  oceTAUX      Counter:       4   Parms: UU      U1      
           Vector  Mate for  oceTAUX      Diagnostic #     81  oceTAUY  exists 
 Computing Diagnostic #     81  oceTAUY      Counter:       4   Parms: VV      U1      
           Vector  Mate for  oceTAUY      Diagnostic #     80  oceTAUX  exists 
 Computing Diagnostic #     26  THETA        Counter:       4   Parms: SMR     MR      
 Computing Diagnostic #     27  SALT         Counter:       4   Parms: SMR     MR      
 Computing Diagnostic #     30  UVEL         Counter:       4   Parms: UUR     MR      
           Vector  Mate for  UVEL         Diagnostic #     31  VVEL     exists 
 Computing Diagnostic #     31  VVEL         Counter:       4   Parms: VVR     MR      
           Vector  Mate for  VVEL         Diagnostic #     30  UVEL     exists 
 Computing Diagnostic #    214  SIarea       Counter:       4   Parms: SM      M1      
 Computing Diagnostic #    217  SIheff       Counter:       4   Parms: SM      M1      
 Computing Diagnostic #    219  SIhsnow      Counter:       4   Parms: SM      M1      
 Computing Diagnostic #     83  sIceLoad     Counter:       4   Parms: SM      U1      
 Computing Diagnostic #    223  SIuice       Counter:       4   Parms: UU      M1      
           Vector  Mate for  SIuice       Diagnostic #    224  SIvice   exists 
 Computing Diagnostic #    224  SIvice       Counter:       4   Parms: VV      M1      
           Vector  Mate for  SIvice       Diagnostic #    223  SIuice   exists 
 Computing Diagnostic #    225  SItaux       Counter:       4   Parms: UU      U1      
           Vector  Mate for  SItaux       Diagnostic #    226  SItauy   exists 
 Computing Diagnostic #    226  SItauy       Counter:       4   Parms: VV      U1      
           Vector  Mate for  SItauy       Diagnostic #    225  SItaux   exists 
 Computing Diagnostic #    285  SIareaN      Counter:       4   Parms: SM      MX      
 Computing Diagnostic #    284  SIheffN      Counter:       4   Parms: SM      MX      
 Computing Diagnostic #    286  SIhsnowN     Counter:       4   Parms: SM      MX      
 Compute Stats, Diag. #    214  SIarea    vol(   0 ): 3.580E+14  Parms: SM      M1      
 Compute Stats, Diag. #    217  SIheff    vol(   0 ): 3.580E+14  Parms: SM      M1      
 Compute Stats, Diag. #    219  SIhsnow   vol(   0 ): 3.580E+14  Parms: SM      M1      
 Compute Stats, Diag. #     83  sIceLoad  vol(   0 ): 3.580E+14  Parms: SM      U1      
 Compute Stats, Diag. #    223  SIuice    vol(   0 ): 3.513E+14  Parms: UU      M1      
 Compute Stats, Diag. #    224  SIvice    vol(   0 ): 3.508E+14  Parms: VV      M1      
 Compute Stats, Diag. #    225  SItaux    vol(   0 ): 3.513E+14  Parms: UU      U1      
 Compute Stats, Diag. #    226  SItauy    vol(   0 ): 3.508E+14  Parms: VV      U1      
 cg2d: Sum(rhs),rhsMax =   1.09540097938886E+01  2.93955034166389E-01
 Compute Stats, Diag. #    214  SIarea    vol(   0 ): 3.580E+14  Parms: SM      M1      
 Compute Stats, Diag. #    217  SIheff    vol(   0 ): 3.580E+14  Parms: SM      M1      
 Compute Stats, Diag. #    219  SIhsnow   vol(   0 ): 3.580E+14  Parms: SM      M1      
 Compute Stats, Diag. #     83  sIceLoad  vol(   0 ): 3.580E+14  Parms: SM      U1      
 Compute Stats, Diag. #    223  SIuice    vol(   0 ): 3.513E+14  Parms: UU      M1      
 Compute Stats, Diag. #    224  SIvice    vol(   0 ): 3.508E+14  Parms: VV      M1      
 Compute Stats, Diag. #    225  SItaux    vol(   0 ): 3.513E+14  Parms: UU      U1      
 Compute Stats, Diag. #    226  SItauy    vol(   0 ): 3.508E+14  Parms: VV      U1      
 cg2d: Sum(rhs),rhsMax =   1.09079879442928E+01  2.93925444513527E-01
 Compute Stats, Diag. #    214  SIarea    vol(   0 ): 3.580E+14  Parms: SM      M1      
 Compute Stats, Diag. #    217  SIheff    vol(   0 ): 3.580E+14  Parms: SM      M1      
 Compute Stats, Diag. #    219  SIhsnow   vol(   0 ): 3.580E+14  Parms: SM      M1      
 Compute Stats, Diag. #     83  sIceLoad  vol(   0 ): 3.580E+14  Parms: SM      U1      
 Compute Stats, Diag. #    223  SIuice    vol(   0 ): 3.513E+14  Parms: UU      M1      
 Compute Stats, Diag. #    224  SIvice    vol(   0 ): 3.508E+14  Parms: VV      M1      
 Compute Stats, Diag. #    225  SItaux    vol(   0 ): 3.513E+14  Parms: UU      U1      
 Compute Stats, Diag. #    226  SItauy    vol(   0 ): 3.508E+14  Parms: VV      U1      
 cg2d: Sum(rhs),rhsMax =   1.08692307032184E+01  2.93889591191729E-01
 Compute Stats, Diag. #    214  SIarea    vol(   0 ): 3.580E+14  Parms: SM      M1      
 Compute Stats, Diag. #    217  SIheff    vol(   0 ): 3.580E+14  Parms: SM      M1      
 Compute Stats, Diag. #    219  SIhsnow   vol(   0 ): 3.580E+14  Parms: SM      M1      
 Compute Stats, Diag. #     83  sIceLoad  vol(   0 ): 3.580E+14  Parms: SM      U1      
 Compute Stats, Diag. #    223  SIuice    vol(   0 ): 3.513E+14  Parms: UU      M1      
 Compute Stats, Diag. #    224  SIvice    vol(   0 ): 3.508E+14  Parms: VV      M1      
 Compute Stats, Diag. #    225  SItaux    vol(   0 ): 3.513E+14  Parms: UU      U1      
 Compute Stats, Diag. #    226  SItauy    vol(   0 ): 3.508E+14  Parms: VV      U1      
 cg2d: Sum(rhs),rhsMax =   1.08298687194754E+01  2.93849569076957E-01
(PID.TID 0000.0001)      cg2d_init_res =   4.73235195818311E-02
(PID.TID 0000.0001)      cg2d_iters(min,last) =      -1      25
(PID.TID 0000.0001)      cg2d_last_res =   2.40682934411180E-05
(PID.TID 0000.0001) // =======================================================
(PID.TID 0000.0001) // Begin MONITOR dynamic field statistics
(PID.TID 0000.0001) // =======================================================
(PID.TID 0000.0001) %MON time_tsnumber                =                   592
(PID.TID 0000.0001) %MON time_secondsf                =   5.3280000000000E+05
(PID.TID 0000.0001) %MON dynstat_eta_max              =   1.0321791102550E+00
(PID.TID 0000.0001) %MON dynstat_eta_min              =  -1.8583427402858E+00
(PID.TID 0000.0001) %MON dynstat_eta_mean             =  -3.4258333590274E-04
(PID.TID 0000.0001) %MON dynstat_eta_sd               =   6.3333483958240E-01
(PID.TID 0000.0001) %MON dynstat_eta_del2             =   5.4614379913435E-05
(PID.TID 0000.0001) %MON dynstat_uvel_max             =   7.6529263974470E-01
(PID.TID 0000.0001) %MON dynstat_uvel_min             =  -6.1256249387609E-01
(PID.TID 0000.0001) %MON dynstat_uvel_mean            =   1.4569405556420E-03
(PID.TID 0000.0001) %MON dynstat_uvel_sd              =   1.8490471671986E-02
(PID.TID 0000.0001) %MON dynstat_uvel_del2            =   7.5354491568097E-06
(PID.TID 0000.0001) %MON dynstat_vvel_max             =   8.5800594343904E-01
(PID.TID 0000.0001) %MON dynstat_vvel_min             =  -8.7197789207131E-01
(PID.TID 0000.0001) %MON dynstat_vvel_mean            =   1.2199857177512E-03
(PID.TID 0000.0001) %MON dynstat_vvel_sd              =   1.9626430480710E-02
(PID.TID 0000.0001) %MON dynstat_vvel_del2            =   7.6099461793089E-06
(PID.TID 0000.0001) %MON dynstat_wvel_max             =   3.4105872496768E-04
(PID.TID 0000.0001) %MON dynstat_wvel_min             =  -8.1910034764938E-04
(PID.TID 0000.0001) %MON dynstat_wvel_mean            =   6.4928042634986E-09
(PID.TID 0000.0001) %MON dynstat_wvel_sd              =   1.7769365178386E-05
(PID.TID 0000.0001) %MON dynstat_wvel_del2            =   1.4642606863407E-08
(PID.TID 0000.0001) %MON dynstat_theta_max            =   3.2206731456487E+01
(PID.TID 0000.0001) %MON dynstat_theta_min            =  -2.0560398340999E+00
(PID.TID 0000.0001) %MON dynstat_theta_mean           =   3.5903540732008E+00
(PID.TID 0000.0001) %MON dynstat_theta_sd             =   4.4365949180533E+00
(PID.TID 0000.0001) %MON dynstat_theta_del2           =   9.3545049101126E-05
(PID.TID 0000.0001) %MON dynstat_salt_max             =   4.0711556466080E+01
(PID.TID 0000.0001) %MON dynstat_salt_min             =   8.9351359812808E+00
(PID.TID 0000.0001) %MON dynstat_salt_mean            =   3.4725574391321E+01
(PID.TID 0000.0001) %MON dynstat_salt_sd              =   3.7703122059422E-01
(PID.TID 0000.0001) %MON dynstat_salt_del2            =   3.5265758601976E-05
(PID.TID 0000.0001) %MON dynstat_sst_max              =   3.2206731456487E+01
(PID.TID 0000.0001) %MON dynstat_sst_min              =  -1.8149969149066E+00
(PID.TID 0000.0001) %MON dynstat_sst_mean             =   1.8490259942203E+01
(PID.TID 0000.0001) %MON dynstat_sst_sd               =   1.0225004415414E+01
(PID.TID 0000.0001) %MON dynstat_sst_del2             =   8.1245915602118E-04
(PID.TID 0000.0001) %MON dynstat_sss_max              =   3.9107286946170E+01
(PID.TID 0000.0001) %MON dynstat_sss_min              =   8.9351359812808E+00
(PID.TID 0000.0001) %MON dynstat_sss_mean             =   3.4700196519950E+01
(PID.TID 0000.0001) %MON dynstat_sss_sd               =   1.1637091111428E+00
(PID.TID 0000.0001) %MON dynstat_sss_del2             =   1.0872590674492E-03
(PID.TID 0000.0001) %MON forcing_qnet_max             =   7.7054254150391E+02
(PID.TID 0000.0001) %MON forcing_qnet_min             =  -9.6512280273438E+02
(PID.TID 0000.0001) %MON forcing_qnet_mean            =  -2.2929446299574E+01
(PID.TID 0000.0001) %MON forcing_qnet_sd              =   2.0164402267051E+02
(PID.TID 0000.0001) %MON forcing_qnet_del2            =   3.3872569591713E-01
(PID.TID 0000.0001) %MON forcing_qsw_max              =   0.0000000000000E+00
(PID.TID 0000.0001) %MON forcing_qsw_min              =  -1.0994946444186E+02
(PID.TID 0000.0001) %MON forcing_qsw_mean             =  -2.1146074143328E+01
(PID.TID 0000.0001) %MON forcing_qsw_sd               =   2.9501246848724E+01
(PID.TID 0000.0001) %MON forcing_qsw_del2             =   2.1672179219160E-02
(PID.TID 0000.0001) %MON forcing_empmr_max            =   1.7692057881504E-03
(PID.TID 0000.0001) %MON forcing_empmr_min            =  -4.8435073345900E-02
(PID.TID 0000.0001) %MON forcing_empmr_mean           =  -1.4236160801711E-06
(PID.TID 0000.0001) %MON forcing_empmr_sd             =   2.1592229560300E-04
(PID.TID 0000.0001) %MON forcing_empmr_del2           =   2.1321057794056E-06
(PID.TID 0000.0001) %MON forcing_fu_max               =   1.2407481670380E+00
(PID.TID 0000.0001) %MON forcing_fu_min               =  -1.0992507934570E+00
(PID.TID 0000.0001) %MON forcing_fu_mean              =   2.6374402096149E-03
(PID.TID 0000.0001) %MON forcing_fu_sd                =   1.1194121870418E-01
(PID.TID 0000.0001) %MON forcing_fu_del2              =   1.6110943994600E-04
(PID.TID 0000.0001) %MON forcing_fv_max               =   9.4153514504433E-01
(PID.TID 0000.0001) %MON forcing_fv_min               =  -8.3552990025536E-01
(PID.TID 0000.0001) %MON forcing_fv_mean              =  -6.5673449032707E-03
(PID.TID 0000.0001) %MON forcing_fv_sd                =   1.0467916429563E-01
(PID.TID 0000.0001) %MON forcing_fv_del2              =   1.3805857424183E-04
(PID.TID 0000.0001) %MON trAdv_CFL_u_max              =   1.3024586534579E-02
(PID.TID 0000.0001) %MON trAdv_CFL_v_max              =   1.4920809204414E-02
(PID.TID 0000.0001) %MON trAdv_CFL_w_max              =   1.9289390933626E-02
(PID.TID 0000.0001) %MON advcfl_uvel_max              =   7.7178183330548E-03
(PID.TID 0000.0001) %MON advcfl_vvel_max              =   1.5230381279075E-02
(PID.TID 0000.0001) %MON advcfl_wvel_max              =   1.6965655049060E-02
(PID.TID 0000.0001) %MON advcfl_W_hf_max              =   1.7793135517679E-02
(PID.TID 0000.0001) %MON pe_b_mean                    =   5.2762480356343E-04
(PID.TID 0000.0001) %MON ke_max                       =   3.7994239218128E-01
(PID.TID 0000.0001) %MON ke_mean                      =   3.5234240913439E-04
(PID.TID 0000.0001) %MON ke_vol                       =   1.3349977538439E+18
(PID.TID 0000.0001) %MON vort_r_min                   =  -1.6012662784052E-05
(PID.TID 0000.0001) %MON vort_r_max                   =   2.3933819829852E-05
(PID.TID 0000.0001) %MON vort_a_mean                  =  -1.9727864647440E-05
(PID.TID 0000.0001) %MON vort_a_sd                    =   7.4543023804647E-05
(PID.TID 0000.0001) %MON vort_p_mean                  =  -2.1760535572650E-05
(PID.TID 0000.0001) %MON vort_p_sd                    =   9.7246577118430E-05
(PID.TID 0000.0001) %MON surfExpan_theta_mean         =  -1.0840054927950E-08
(PID.TID 0000.0001) %MON surfExpan_salt_mean          =   7.0325944295261E-09
(PID.TID 0000.0001) // =======================================================
(PID.TID 0000.0001) // End MONITOR dynamic field statistics
(PID.TID 0000.0001) // =======================================================
(PID.TID 0000.0001) // =======================================================
(PID.TID 0000.0001) // Begin MONITOR SEAICE statistics
(PID.TID 0000.0001) // =======================================================
(PID.TID 0000.0001) %MON seaice_tsnumber              =                   592
(PID.TID 0000.0001) %MON seaice_time_sec              =   5.3280000000000E+05
(PID.TID 0000.0001) %MON seaice_uice_max              =   4.0000000000000E-01
(PID.TID 0000.0001) %MON seaice_uice_min              =  -4.0000000000000E-01
(PID.TID 0000.0001) %MON seaice_uice_mean             =  -8.3054598624025E-03
(PID.TID 0000.0001) %MON seaice_uice_sd               =   1.9802383574176E-01
(PID.TID 0000.0001) %MON seaice_uice_del2             =   2.2931571122150E-04
(PID.TID 0000.0001) %MON seaice_vice_max              =   4.0000000000000E-01
(PID.TID 0000.0001) %MON seaice_vice_min              =  -4.0000000000000E-01
(PID.TID 0000.0001) %MON seaice_vice_mean             =  -2.1960776359499E-02
(PID.TID 0000.0001) %MON seaice_vice_sd               =   2.1302038025672E-01
(PID.TID 0000.0001) %MON seaice_vice_del2             =   2.3932563818061E-04
(PID.TID 0000.0001) %MON seaice_area_max              =   1.0000000000000E+00
(PID.TID 0000.0001) %MON seaice_area_min              =   0.0000000000000E+00
(PID.TID 0000.0001) %MON seaice_area_mean             =   6.6514192458101E-02
(PID.TID 0000.0001) %MON seaice_area_sd               =   2.3101448341345E-01
(PID.TID 0000.0001) %MON seaice_area_del2             =   4.0256636797626E-04
(PID.TID 0000.0001) %MON seaice_heff_max              =   2.5045323925558E+01
(PID.TID 0000.0001) %MON seaice_heff_min              =   0.0000000000000E+00
(PID.TID 0000.0001) %MON seaice_heff_mean             =   2.1333187803176E-01
(PID.TID 0000.0001) %MON seaice_heff_sd               =   1.0672628418489E+00
(PID.TID 0000.0001) %MON seaice_heff_del2             =   3.8565746452379E-03
(PID.TID 0000.0001) %MON seaice_hsnow_max             =   8.2723295840260E+00
(PID.TID 0000.0001) %MON seaice_hsnow_min             =   0.0000000000000E+00
(PID.TID 0000.0001) %MON seaice_hsnow_mean            =   2.4128535038102E-02
(PID.TID 0000.0001) %MON seaice_hsnow_sd              =   1.5641589404436E-01
(PID.TID 0000.0001) %MON seaice_hsnow_del2            =   1.2420289378238E-03
(PID.TID 0000.0001) // =======================================================
(PID.TID 0000.0001) // End MONITOR SEAICE statistics
(PID.TID 0000.0001) // =======================================================
 Computing Diagnostic #     86  oceQnet      Counter:       4   Parms: SM      U1      
 Computing Diagnostic #     87  oceQsw       Counter:       4   Parms: SM      U1      
 Computing Diagnostic #     84  oceFWflx     Counter:       4   Parms: SM      U1      
 Computing Diagnostic #     85  oceSflux     Counter:       4   Parms: SM      U1      
 Computing Diagnostic #     80  oceTAUX      Counter:       4   Parms: UU      U1      
           Vector  Mate for  oceTAUX      Diagnostic #     81  oceTAUY  exists 
 Computing Diagnostic #     81  oceTAUY      Counter:       4   Parms: VV      U1      
           Vector  Mate for  oceTAUY      Diagnostic #     80  oceTAUX  exists 
 Computing Diagnostic #     26  THETA        Counter:       4   Parms: SMR     MR      
 Computing Diagnostic #     27  SALT         Counter:       4   Parms: SMR     MR      
 Computing Diagnostic #     30  UVEL         Counter:       4   Parms: UUR     MR      
           Vector  Mate for  UVEL         Diagnostic #     31  VVEL     exists 
 Computing Diagnostic #     31  VVEL         Counter:       4   Parms: VVR     MR      
           Vector  Mate for  VVEL         Diagnostic #     30  UVEL     exists 
 Computing Diagnostic #    214  SIarea       Counter:       4   Parms: SM      M1      
 Computing Diagnostic #    217  SIheff       Counter:       4   Parms: SM      M1      
 Computing Diagnostic #    219  SIhsnow      Counter:       4   Parms: SM      M1      
 Computing Diagnostic #     83  sIceLoad     Counter:       4   Parms: SM      U1      
 Computing Diagnostic #    223  SIuice       Counter:       4   Parms: UU      M1      
           Vector  Mate for  SIuice       Diagnostic #    224  SIvice   exists 
 Computing Diagnostic #    224  SIvice       Counter:       4   Parms: VV      M1      
           Vector  Mate for  SIvice       Diagnostic #    223  SIuice   exists 
 Computing Diagnostic #    225  SItaux       Counter:       4   Parms: UU      U1      
           Vector  Mate for  SItaux       Diagnostic #    226  SItauy   exists 
 Computing Diagnostic #    226  SItauy       Counter:       4   Parms: VV      U1      
           Vector  Mate for  SItauy       Diagnostic #    225  SItaux   exists 
 Computing Diagnostic #    285  SIareaN      Counter:       4   Parms: SM      MX      
 Computing Diagnostic #    284  SIheffN      Counter:       4   Parms: SM      MX      
 Computing Diagnostic #    286  SIhsnowN     Counter:       4   Parms: SM      MX      
 Compute Stats, Diag. #    214  SIarea    vol(   0 ): 3.580E+14  Parms: SM      M1      
 Compute Stats, Diag. #    217  SIheff    vol(   0 ): 3.580E+14  Parms: SM      M1      
 Compute Stats, Diag. #    219  SIhsnow   vol(   0 ): 3.580E+14  Parms: SM      M1      
 Compute Stats, Diag. #     83  sIceLoad  vol(   0 ): 3.580E+14  Parms: SM      U1      
 Compute Stats, Diag. #    223  SIuice    vol(   0 ): 3.513E+14  Parms: UU      M1      
 Compute Stats, Diag. #    224  SIvice    vol(   0 ): 3.508E+14  Parms: VV      M1      
 Compute Stats, Diag. #    225  SItaux    vol(   0 ): 3.513E+14  Parms: UU      U1      
 Compute Stats, Diag. #    226  SItauy    vol(   0 ): 3.508E+14  Parms: VV      U1      
 cg2d: Sum(rhs),rhsMax =   1.07946815901227E+01  2.93805057910168E-01
 Compute Stats, Diag. #    214  SIarea    vol(   0 ): 3.580E+14  Parms: SM      M1      
 Compute Stats, Diag. #    217  SIheff    vol(   0 ): 3.580E+14  Parms: SM      M1      
 Compute Stats, Diag. #    219  SIhsnow   vol(   0 ): 3.580E+14  Parms: SM      M1      
 Compute Stats, Diag. #     83  sIceLoad  vol(   0 ): 3.580E+14  Parms: SM      U1      
 Compute Stats, Diag. #    223  SIuice    vol(   0 ): 3.513E+14  Parms: UU      M1      
 Compute Stats, Diag. #    224  SIvice    vol(   0 ): 3.508E+14  Parms: VV      M1      
 Compute Stats, Diag. #    225  SItaux    vol(   0 ): 3.513E+14  Parms: UU      U1      
 Compute Stats, Diag. #    226  SItauy    vol(   0 ): 3.508E+14  Parms: VV      U1      
 cg2d: Sum(rhs),rhsMax =   1.07615577931695E+01  2.93757652524232E-01
 Compute Stats, Diag. #    214  SIarea    vol(   0 ): 3.580E+14  Parms: SM      M1      
 Compute Stats, Diag. #    217  SIheff    vol(   0 ): 3.580E+14  Parms: SM      M1      
 Compute Stats, Diag. #    219  SIhsnow   vol(   0 ): 3.580E+14  Parms: SM      M1      
 Compute Stats, Diag. #     83  sIceLoad  vol(   0 ): 3.580E+14  Parms: SM      U1      
 Compute Stats, Diag. #    223  SIuice    vol(   0 ): 3.513E+14  Parms: UU      M1      
 Compute Stats, Diag. #    224  SIvice    vol(   0 ): 3.508E+14  Parms: VV      M1      
 Compute Stats, Diag. #    225  SItaux    vol(   0 ): 3.513E+14  Parms: UU      U1      
 Compute Stats, Diag. #    226  SItauy    vol(   0 ): 3.508E+14  Parms: VV      U1      
 cg2d: Sum(rhs),rhsMax =   1.07182826020060E+01  2.93709900338496E-01
 Compute Stats, Diag. #    214  SIarea    vol(   0 ): 3.580E+14  Parms: SM      M1      
 Compute Stats, Diag. #    217  SIheff    vol(   0 ): 3.580E+14  Parms: SM      M1      
 Compute Stats, Diag. #    219  SIhsnow   vol(   0 ): 3.580E+14  Parms: SM      M1      
 Compute Stats, Diag. #     83  sIceLoad  vol(   0 ): 3.580E+14  Parms: SM      U1      
 Compute Stats, Diag. #    223  SIuice    vol(   0 ): 3.513E+14  Parms: UU      M1      
 Compute Stats, Diag. #    224  SIvice    vol(   0 ): 3.508E+14  Parms: VV      M1      
 Compute Stats, Diag. #    225  SItaux    vol(   0 ): 3.513E+14  Parms: UU      U1      
 Compute Stats, Diag. #    226  SItauy    vol(   0 ): 3.508E+14  Parms: VV      U1      
 cg2d: Sum(rhs),rhsMax =   1.06742677914409E+01  2.93688429403809E-01
 Computing Diagnostic #     86  oceQnet      Counter:       4   Parms: SM      U1      
 Computing Diagnostic #     87  oceQsw       Counter:       4   Parms: SM      U1      
 Computing Diagnostic #     84  oceFWflx     Counter:       4   Parms: SM      U1      
 Computing Diagnostic #     85  oceSflux     Counter:       4   Parms: SM      U1      
 Computing Diagnostic #     80  oceTAUX      Counter:       4   Parms: UU      U1      
           Vector  Mate for  oceTAUX      Diagnostic #     81  oceTAUY  exists 
 Computing Diagnostic #     81  oceTAUY      Counter:       4   Parms: VV      U1      
           Vector  Mate for  oceTAUY      Diagnostic #     80  oceTAUX  exists 
 Computing Diagnostic #     26  THETA        Counter:       4   Parms: SMR     MR      
 Computing Diagnostic #     27  SALT         Counter:       4   Parms: SMR     MR      
 Computing Diagnostic #     30  UVEL         Counter:       4   Parms: UUR     MR      
           Vector  Mate for  UVEL         Diagnostic #     31  VVEL     exists 
 Computing Diagnostic #     31  VVEL         Counter:       4   Parms: VVR     MR      
           Vector  Mate for  VVEL         Diagnostic #     30  UVEL     exists 
 Computing Diagnostic #    214  SIarea       Counter:       4   Parms: SM      M1      
 Computing Diagnostic #    217  SIheff       Counter:       4   Parms: SM      M1      
 Computing Diagnostic #    219  SIhsnow      Counter:       4   Parms: SM      M1      
 Computing Diagnostic #     83  sIceLoad     Counter:       4   Parms: SM      U1      
 Computing Diagnostic #    223  SIuice       Counter:       4   Parms: UU      M1      
           Vector  Mate for  SIuice       Diagnostic #    224  SIvice   exists 
 Computing Diagnostic #    224  SIvice       Counter:       4   Parms: VV      M1      
           Vector  Mate for  SIvice       Diagnostic #    223  SIuice   exists 
 Computing Diagnostic #    225  SItaux       Counter:       4   Parms: UU      U1      
           Vector  Mate for  SItaux       Diagnostic #    226  SItauy   exists 
 Computing Diagnostic #    226  SItauy       Counter:       4   Parms: VV      U1      
           Vector  Mate for  SItauy       Diagnostic #    225  SItaux   exists 
 Computing Diagnostic #    285  SIareaN      Counter:       4   Parms: SM      MX      
 Computing Diagnostic #    284  SIheffN      Counter:       4   Parms: SM      MX      
 Computing Diagnostic #    286  SIhsnowN     Counter:       4   Parms: SM      MX      
 Compute Stats, Diag. #    214  SIarea    vol(   0 ): 3.580E+14  Parms: SM      M1      
 Compute Stats, Diag. #    217  SIheff    vol(   0 ): 3.580E+14  Parms: SM      M1      
 Compute Stats, Diag. #    219  SIhsnow   vol(   0 ): 3.580E+14  Parms: SM      M1      
 Compute Stats, Diag. #     83  sIceLoad  vol(   0 ): 3.580E+14  Parms: SM      U1      
 Compute Stats, Diag. #    223  SIuice    vol(   0 ): 3.513E+14  Parms: UU      M1      
 Compute Stats, Diag. #    224  SIvice    vol(   0 ): 3.508E+14  Parms: VV      M1      
 Compute Stats, Diag. #    225  SItaux    vol(   0 ): 3.513E+14  Parms: UU      U1      
 Compute Stats, Diag. #    226  SItauy    vol(   0 ): 3.508E+14  Parms: VV      U1      
 cg2d: Sum(rhs),rhsMax =   1.06244034030316E+01  2.93662971137650E-01
 Compute Stats, Diag. #    214  SIarea    vol(   0 ): 3.580E+14  Parms: SM      M1      
 Compute Stats, Diag. #    217  SIheff    vol(   0 ): 3.580E+14  Parms: SM      M1      
 Compute Stats, Diag. #    219  SIhsnow   vol(   0 ): 3.580E+14  Parms: SM      M1      
 Compute Stats, Diag. #     83  sIceLoad  vol(   0 ): 3.580E+14  Parms: SM      U1      
 Compute Stats, Diag. #    223  SIuice    vol(   0 ): 3.513E+14  Parms: UU      M1      
 Compute Stats, Diag. #    224  SIvice    vol(   0 ): 3.508E+14  Parms: VV      M1      
 Compute Stats, Diag. #    225  SItaux    vol(   0 ): 3.513E+14  Parms: UU      U1      
 Compute Stats, Diag. #    226  SItauy    vol(   0 ): 3.508E+14  Parms: VV      U1      
 cg2d: Sum(rhs),rhsMax =   1.05700794287716E+01  2.93638109773640E-01
 Compute Stats, Diag. #    214  SIarea    vol(   0 ): 3.580E+14  Parms: SM      M1      
 Compute Stats, Diag. #    217  SIheff    vol(   0 ): 3.580E+14  Parms: SM      M1      
 Compute Stats, Diag. #    219  SIhsnow   vol(   0 ): 3.580E+14  Parms: SM      M1      
 Compute Stats, Diag. #     83  sIceLoad  vol(   0 ): 3.580E+14  Parms: SM      U1      
 Compute Stats, Diag. #    223  SIuice    vol(   0 ): 3.513E+14  Parms: UU      M1      
 Compute Stats, Diag. #    224  SIvice    vol(   0 ): 3.508E+14  Parms: VV      M1      
 Compute Stats, Diag. #    225  SItaux    vol(   0 ): 3.513E+14  Parms: UU      U1      
 Compute Stats, Diag. #    226  SItauy    vol(   0 ): 3.508E+14  Parms: VV      U1      
 cg2d: Sum(rhs),rhsMax =   1.05130905331721E+01  2.93613384534955E-01
 Compute Stats, Diag. #    214  SIarea    vol(   0 ): 3.580E+14  Parms: SM      M1      
 Compute Stats, Diag. #    217  SIheff    vol(   0 ): 3.580E+14  Parms: SM      M1      
 Compute Stats, Diag. #    219  SIhsnow   vol(   0 ): 3.580E+14  Parms: SM      M1      
 Compute Stats, Diag. #     83  sIceLoad  vol(   0 ): 3.580E+14  Parms: SM      U1      
 Compute Stats, Diag. #    223  SIuice    vol(   0 ): 3.513E+14  Parms: UU      M1      
 Compute Stats, Diag. #    224  SIvice    vol(   0 ): 3.508E+14  Parms: VV      M1      
 Compute Stats, Diag. #    225  SItaux    vol(   0 ): 3.513E+14  Parms: UU      U1      
 Compute Stats, Diag. #    226  SItauy    vol(   0 ): 3.508E+14  Parms: VV      U1      
 cg2d: Sum(rhs),rhsMax =   1.04532614476283E+01  2.93591193016938E-01
(PID.TID 0000.0001)      cg2d_init_res =   4.79899742878945E-02
(PID.TID 0000.0001)      cg2d_iters(min,last) =      -1      25
(PID.TID 0000.0001)      cg2d_last_res =   2.61101334451754E-05
(PID.TID 0000.0001) // =======================================================
(PID.TID 0000.0001) // Begin MONITOR dynamic field statistics
(PID.TID 0000.0001) // =======================================================
(PID.TID 0000.0001) %MON time_tsnumber                =                   600
(PID.TID 0000.0001) %MON time_secondsf                =   5.4000000000000E+05
(PID.TID 0000.0001) %MON dynstat_eta_max              =   1.0299531480162E+00
(PID.TID 0000.0001) %MON dynstat_eta_min              =  -1.8575530972648E+00
(PID.TID 0000.0001) %MON dynstat_eta_mean             =  -3.3067004509017E-04
(PID.TID 0000.0001) %MON dynstat_eta_sd               =   6.3324028992597E-01
(PID.TID 0000.0001) %MON dynstat_eta_del2             =   5.4564984742855E-05
(PID.TID 0000.0001) %MON dynstat_uvel_max             =   7.5705533313112E-01
(PID.TID 0000.0001) %MON dynstat_uvel_min             =  -6.1201145326877E-01
(PID.TID 0000.0001) %MON dynstat_uvel_mean            =   1.4572958510693E-03
(PID.TID 0000.0001) %MON dynstat_uvel_sd              =   1.8501825293735E-02
(PID.TID 0000.0001) %MON dynstat_uvel_del2            =   7.5198260396548E-06
(PID.TID 0000.0001) %MON dynstat_vvel_max             =   8.4528772098035E-01
(PID.TID 0000.0001) %MON dynstat_vvel_min             =  -8.7487843162360E-01
(PID.TID 0000.0001) %MON dynstat_vvel_mean            =   1.2128825344113E-03
(PID.TID 0000.0001) %MON dynstat_vvel_sd              =   1.9623885154782E-02
(PID.TID 0000.0001) %MON dynstat_vvel_del2            =   7.5913940321539E-06
(PID.TID 0000.0001) %MON dynstat_wvel_max             =   3.2928072189057E-04
(PID.TID 0000.0001) %MON dynstat_wvel_min             =  -8.1199874817566E-04
(PID.TID 0000.0001) %MON dynstat_wvel_mean            =   3.9712222711249E-09
(PID.TID 0000.0001) %MON dynstat_wvel_sd              =   1.7819139671015E-05
(PID.TID 0000.0001) %MON dynstat_wvel_del2            =   1.4622920800117E-08
(PID.TID 0000.0001) %MON dynstat_theta_max            =   3.2215793960818E+01
(PID.TID 0000.0001) %MON dynstat_theta_min            =  -2.0520770788505E+00
(PID.TID 0000.0001) %MON dynstat_theta_mean           =   3.5903590942471E+00
(PID.TID 0000.0001) %MON dynstat_theta_sd             =   4.4366429689718E+00
(PID.TID 0000.0001) %MON dynstat_theta_del2           =   9.3487912310271E-05
(PID.TID 0000.0001) %MON dynstat_salt_max             =   4.0711556547436E+01
(PID.TID 0000.0001) %MON dynstat_salt_min             =   8.9361723238182E+00
(PID.TID 0000.0001) %MON dynstat_salt_mean            =   3.4725574280308E+01
(PID.TID 0000.0001) %MON dynstat_salt_sd              =   3.7703153151342E-01
(PID.TID 0000.0001) %MON dynstat_salt_del2            =   3.5057061434320E-05
(PID.TID 0000.0001) %MON dynstat_sst_max              =   3.2215793960818E+01
(PID.TID 0000.0001) %MON dynstat_sst_min              =  -1.8130389581884E+00
(PID.TID 0000.0001) %MON dynstat_sst_mean             =   1.8490809855672E+01
(PID.TID 0000.0001) %MON dynstat_sst_sd               =   1.0227345472935E+01
(PID.TID 0000.0001) %MON dynstat_sst_del2             =   8.1303348228181E-04
(PID.TID 0000.0001) %MON dynstat_sss_max              =   3.9107041127705E+01
(PID.TID 0000.0001) %MON dynstat_sss_min              =   8.9361723238182E+00
(PID.TID 0000.0001) %MON dynstat_sss_mean             =   3.4700249842305E+01
(PID.TID 0000.0001) %MON dynstat_sss_sd               =   1.1639287386878E+00
(PID.TID 0000.0001) %MON dynstat_sss_del2             =   1.0762877530432E-03
(PID.TID 0000.0001) %MON forcing_qnet_max             =   7.9384338378906E+02
(PID.TID 0000.0001) %MON forcing_qnet_min             =  -6.5681171006195E+02
(PID.TID 0000.0001) %MON forcing_qnet_mean            =  -1.8752547325672E+00
(PID.TID 0000.0001) %MON forcing_qnet_sd              =   1.8559745880067E+02
(PID.TID 0000.0001) %MON forcing_qnet_del2            =   3.2844457085977E-01
(PID.TID 0000.0001) %MON forcing_qsw_max              =   0.0000000000000E+00
(PID.TID 0000.0001) %MON forcing_qsw_min              =  -1.0916526513083E+02
(PID.TID 0000.0001) %MON forcing_qsw_mean             =  -1.8703719869174E+01
(PID.TID 0000.0001) %MON forcing_qsw_sd               =   2.7558236346219E+01
(PID.TID 0000.0001) %MON forcing_qsw_del2             =   2.2589749042318E-02
(PID.TID 0000.0001) %MON forcing_empmr_max            =   2.4322683457285E-03
(PID.TID 0000.0001) %MON forcing_empmr_min            =  -5.2884206175804E-02
(PID.TID 0000.0001) %MON forcing_empmr_mean           =  -2.1638555821140E-06
(PID.TID 0000.0001) %MON forcing_empmr_sd             =   2.3939778442537E-04
(PID.TID 0000.0001) %MON forcing_empmr_del2           =   2.6455295717639E-06
(PID.TID 0000.0001) %MON forcing_fu_max               =   1.1532689332962E+00
(PID.TID 0000.0001) %MON forcing_fu_min               =  -1.1670216917992E+00
(PID.TID 0000.0001) %MON forcing_fu_mean              =   2.6335170896960E-03
(PID.TID 0000.0001) %MON forcing_fu_sd                =   1.1163616581025E-01
(PID.TID 0000.0001) %MON forcing_fu_del2              =   1.6139885335260E-04
(PID.TID 0000.0001) %MON forcing_fv_max               =   9.8011670215457E-01
(PID.TID 0000.0001) %MON forcing_fv_min               =  -8.3175790309906E-01
(PID.TID 0000.0001) %MON forcing_fv_mean              =  -7.1615737853658E-03
(PID.TID 0000.0001) %MON forcing_fv_sd                =   1.0607997237816E-01
(PID.TID 0000.0001) %MON forcing_fv_del2              =   1.4050453819078E-04
(PID.TID 0000.0001) %MON trAdv_CFL_u_max              =   1.3149911348789E-02
(PID.TID 0000.0001) %MON trAdv_CFL_v_max              =   1.4719383629087E-02
(PID.TID 0000.0001) %MON trAdv_CFL_w_max              =   1.9134096416164E-02
(PID.TID 0000.0001) %MON advcfl_uvel_max              =   8.1224449276199E-03
(PID.TID 0000.0001) %MON advcfl_vvel_max              =   1.5004621331001E-02
(PID.TID 0000.0001) %MON advcfl_wvel_max              =   1.7021498614353E-02
(PID.TID 0000.0001) %MON advcfl_W_hf_max              =   1.7851693363117E-02
(PID.TID 0000.0001) %MON pe_b_mean                    =   5.2746726651341E-04
(PID.TID 0000.0001) %MON ke_max                       =   3.8258224432691E-01
(PID.TID 0000.0001) %MON ke_mean                      =   3.5248887210538E-04
(PID.TID 0000.0001) %MON ke_vol                       =   1.3349977578773E+18
(PID.TID 0000.0001) %MON vort_r_min                   =  -1.5683504649786E-05
(PID.TID 0000.0001) %MON vort_r_max                   =   2.3528702179692E-05
(PID.TID 0000.0001) %MON vort_a_mean                  =  -1.9727864647440E-05
(PID.TID 0000.0001) %MON vort_a_sd                    =   7.4543026806944E-05
(PID.TID 0000.0001) %MON vort_p_mean                  =  -2.1760535496084E-05
(PID.TID 0000.0001) %MON vort_p_sd                    =   9.7246469599899E-05
(PID.TID 0000.0001) %MON surfExpan_theta_mean         =  -5.8761784923969E-08
(PID.TID 0000.0001) %MON surfExpan_salt_mean          =   2.8220428926900E-09
(PID.TID 0000.0001) // =======================================================
(PID.TID 0000.0001) // End MONITOR dynamic field statistics
(PID.TID 0000.0001) // =======================================================
(PID.TID 0000.0001) // =======================================================
(PID.TID 0000.0001) // Begin MONITOR SEAICE statistics
(PID.TID 0000.0001) // =======================================================
(PID.TID 0000.0001) %MON seaice_tsnumber              =                   600
(PID.TID 0000.0001) %MON seaice_time_sec              =   5.4000000000000E+05
(PID.TID 0000.0001) %MON seaice_uice_max              =   4.0000000000000E-01
(PID.TID 0000.0001) %MON seaice_uice_min              =  -4.0000000000000E-01
(PID.TID 0000.0001) %MON seaice_uice_mean             =  -8.3054598624025E-03
(PID.TID 0000.0001) %MON seaice_uice_sd               =   1.9802383574176E-01
(PID.TID 0000.0001) %MON seaice_uice_del2             =   2.2931571122150E-04
(PID.TID 0000.0001) %MON seaice_vice_max              =   4.0000000000000E-01
(PID.TID 0000.0001) %MON seaice_vice_min              =  -4.0000000000000E-01
(PID.TID 0000.0001) %MON seaice_vice_mean             =  -2.1960776359499E-02
(PID.TID 0000.0001) %MON seaice_vice_sd               =   2.1302038025672E-01
(PID.TID 0000.0001) %MON seaice_vice_del2             =   2.3932563818061E-04
(PID.TID 0000.0001) %MON seaice_area_max              =   1.0000000000000E+00
(PID.TID 0000.0001) %MON seaice_area_min              =   0.0000000000000E+00
(PID.TID 0000.0001) %MON seaice_area_mean             =   6.6469949251190E-02
(PID.TID 0000.0001) %MON seaice_area_sd               =   2.3093267765993E-01
(PID.TID 0000.0001) %MON seaice_area_del2             =   4.0192207009245E-04
(PID.TID 0000.0001) %MON seaice_heff_max              =   2.5043131499784E+01
(PID.TID 0000.0001) %MON seaice_heff_min              =   0.0000000000000E+00
(PID.TID 0000.0001) %MON seaice_heff_mean             =   2.1329173236996E-01
(PID.TID 0000.0001) %MON seaice_heff_sd               =   1.0672256768573E+00
(PID.TID 0000.0001) %MON seaice_heff_del2             =   3.8557921383646E-03
(PID.TID 0000.0001) %MON seaice_hsnow_max             =   8.2716181602445E+00
(PID.TID 0000.0001) %MON seaice_hsnow_min             =   0.0000000000000E+00
(PID.TID 0000.0001) %MON seaice_hsnow_mean            =   2.4126174615897E-02
(PID.TID 0000.0001) %MON seaice_hsnow_sd              =   1.5640882470707E-01
(PID.TID 0000.0001) %MON seaice_hsnow_del2            =   1.2418805950316E-03
(PID.TID 0000.0001) // =======================================================
(PID.TID 0000.0001) // End MONITOR SEAICE statistics
(PID.TID 0000.0001) // =======================================================
 Computing Diagnostic #     86  oceQnet      Counter:       4   Parms: SM      U1      
 Computing Diagnostic #     87  oceQsw       Counter:       4   Parms: SM      U1      
 Computing Diagnostic #     84  oceFWflx     Counter:       4   Parms: SM      U1      
 Computing Diagnostic #     85  oceSflux     Counter:       4   Parms: SM      U1      
 Computing Diagnostic #     80  oceTAUX      Counter:       4   Parms: UU      U1      
           Vector  Mate for  oceTAUX      Diagnostic #     81  oceTAUY  exists 
 Computing Diagnostic #     81  oceTAUY      Counter:       4   Parms: VV      U1      
           Vector  Mate for  oceTAUY      Diagnostic #     80  oceTAUX  exists 
 Computing Diagnostic #     26  THETA        Counter:       4   Parms: SMR     MR      
 Computing Diagnostic #     27  SALT         Counter:       4   Parms: SMR     MR      
 Computing Diagnostic #     30  UVEL         Counter:       4   Parms: UUR     MR      
           Vector  Mate for  UVEL         Diagnostic #     31  VVEL     exists 
 Computing Diagnostic #     31  VVEL         Counter:       4   Parms: VVR     MR      
           Vector  Mate for  VVEL         Diagnostic #     30  UVEL     exists 
 Computing Diagnostic #    214  SIarea       Counter:       4   Parms: SM      M1      
 Computing Diagnostic #    217  SIheff       Counter:       4   Parms: SM      M1      
 Computing Diagnostic #    219  SIhsnow      Counter:       4   Parms: SM      M1      
 Computing Diagnostic #     83  sIceLoad     Counter:       4   Parms: SM      U1      
 Computing Diagnostic #    223  SIuice       Counter:       4   Parms: UU      M1      
           Vector  Mate for  SIuice       Diagnostic #    224  SIvice   exists 
 Computing Diagnostic #    224  SIvice       Counter:       4   Parms: VV      M1      
           Vector  Mate for  SIvice       Diagnostic #    223  SIuice   exists 
 Computing Diagnostic #    225  SItaux       Counter:       4   Parms: UU      U1      
           Vector  Mate for  SItaux       Diagnostic #    226  SItauy   exists 
 Computing Diagnostic #    226  SItauy       Counter:       4   Parms: VV      U1      
           Vector  Mate for  SItauy       Diagnostic #    225  SItaux   exists 
 Computing Diagnostic #    285  SIareaN      Counter:       4   Parms: SM      MX      
 Computing Diagnostic #    284  SIheffN      Counter:       4   Parms: SM      MX      
 Computing Diagnostic #    286  SIhsnowN     Counter:       4   Parms: SM      MX      
 Compute Stats, Diag. #    214  SIarea    vol(   0 ): 3.580E+14  Parms: SM      M1      
 Compute Stats, Diag. #    217  SIheff    vol(   0 ): 3.580E+14  Parms: SM      M1      
 Compute Stats, Diag. #    219  SIhsnow   vol(   0 ): 3.580E+14  Parms: SM      M1      
 Compute Stats, Diag. #     83  sIceLoad  vol(   0 ): 3.580E+14  Parms: SM      U1      
 Compute Stats, Diag. #    223  SIuice    vol(   0 ): 3.513E+14  Parms: UU      M1      
 Compute Stats, Diag. #    224  SIvice    vol(   0 ): 3.508E+14  Parms: VV      M1      
 Compute Stats, Diag. #    225  SItaux    vol(   0 ): 3.513E+14  Parms: UU      U1      
 Compute Stats, Diag. #    226  SItauy    vol(   0 ): 3.508E+14  Parms: VV      U1      
 cg2d: Sum(rhs),rhsMax =   1.03886886379421E+01  2.93570043881325E-01
 Compute Stats, Diag. #    214  SIarea    vol(   0 ): 3.580E+14  Parms: SM      M1      
 Compute Stats, Diag. #    217  SIheff    vol(   0 ): 3.580E+14  Parms: SM      M1      
 Compute Stats, Diag. #    219  SIhsnow   vol(   0 ): 3.580E+14  Parms: SM      M1      
 Compute Stats, Diag. #     83  sIceLoad  vol(   0 ): 3.580E+14  Parms: SM      U1      
 Compute Stats, Diag. #    223  SIuice    vol(   0 ): 3.513E+14  Parms: UU      M1      
 Compute Stats, Diag. #    224  SIvice    vol(   0 ): 3.508E+14  Parms: VV      M1      
 Compute Stats, Diag. #    225  SItaux    vol(   0 ): 3.513E+14  Parms: UU      U1      
 Compute Stats, Diag. #    226  SItauy    vol(   0 ): 3.508E+14  Parms: VV      U1      
 cg2d: Sum(rhs),rhsMax =   1.03197562330197E+01  2.93550888541183E-01
 Compute Stats, Diag. #    214  SIarea    vol(   0 ): 3.580E+14  Parms: SM      M1      
 Compute Stats, Diag. #    217  SIheff    vol(   0 ): 3.580E+14  Parms: SM      M1      
 Compute Stats, Diag. #    219  SIhsnow   vol(   0 ): 3.580E+14  Parms: SM      M1      
 Compute Stats, Diag. #     83  sIceLoad  vol(   0 ): 3.580E+14  Parms: SM      U1      
 Compute Stats, Diag. #    223  SIuice    vol(   0 ): 3.513E+14  Parms: UU      M1      
 Compute Stats, Diag. #    224  SIvice    vol(   0 ): 3.508E+14  Parms: VV      M1      
 Compute Stats, Diag. #    225  SItaux    vol(   0 ): 3.513E+14  Parms: UU      U1      
 Compute Stats, Diag. #    226  SItauy    vol(   0 ): 3.508E+14  Parms: VV      U1      
 cg2d: Sum(rhs),rhsMax =   1.02424850747423E+01  2.93533205232790E-01
 Compute Stats, Diag. #    214  SIarea    vol(   0 ): 3.580E+14  Parms: SM      M1      
 Compute Stats, Diag. #    217  SIheff    vol(   0 ): 3.580E+14  Parms: SM      M1      
 Compute Stats, Diag. #    219  SIhsnow   vol(   0 ): 3.580E+14  Parms: SM      M1      
 Compute Stats, Diag. #     83  sIceLoad  vol(   0 ): 3.580E+14  Parms: SM      U1      
 Compute Stats, Diag. #    223  SIuice    vol(   0 ): 3.513E+14  Parms: UU      M1      
 Compute Stats, Diag. #    224  SIvice    vol(   0 ): 3.508E+14  Parms: VV      M1      
 Compute Stats, Diag. #    225  SItaux    vol(   0 ): 3.513E+14  Parms: UU      U1      
 Compute Stats, Diag. #    226  SItauy    vol(   0 ): 3.508E+14  Parms: VV      U1      
 cg2d: Sum(rhs),rhsMax =   1.01584108111714E+01  2.93517646259347E-01
 Computing Diagnostic #     86  oceQnet      Counter:       4   Parms: SM      U1      
 Computing Diagnostic #     87  oceQsw       Counter:       4   Parms: SM      U1      
 Computing Diagnostic #     84  oceFWflx     Counter:       4   Parms: SM      U1      
 Computing Diagnostic #     85  oceSflux     Counter:       4   Parms: SM      U1      
 Computing Diagnostic #     80  oceTAUX      Counter:       4   Parms: UU      U1      
           Vector  Mate for  oceTAUX      Diagnostic #     81  oceTAUY  exists 
 Computing Diagnostic #     81  oceTAUY      Counter:       4   Parms: VV      U1      
           Vector  Mate for  oceTAUY      Diagnostic #     80  oceTAUX  exists 
 Computing Diagnostic #     26  THETA        Counter:       4   Parms: SMR     MR      
 Computing Diagnostic #     27  SALT         Counter:       4   Parms: SMR     MR      
 Computing Diagnostic #     30  UVEL         Counter:       4   Parms: UUR     MR      
           Vector  Mate for  UVEL         Diagnostic #     31  VVEL     exists 
 Computing Diagnostic #     31  VVEL         Counter:       4   Parms: VVR     MR      
           Vector  Mate for  VVEL         Diagnostic #     30  UVEL     exists 
 Computing Diagnostic #    214  SIarea       Counter:       4   Parms: SM      M1      
 Computing Diagnostic #    217  SIheff       Counter:       4   Parms: SM      M1      
 Computing Diagnostic #    219  SIhsnow      Counter:       4   Parms: SM      M1      
 Computing Diagnostic #     83  sIceLoad     Counter:       4   Parms: SM      U1      
 Computing Diagnostic #    223  SIuice       Counter:       4   Parms: UU      M1      
           Vector  Mate for  SIuice       Diagnostic #    224  SIvice   exists 
 Computing Diagnostic #    224  SIvice       Counter:       4   Parms: VV      M1      
           Vector  Mate for  SIvice       Diagnostic #    223  SIuice   exists 
 Computing Diagnostic #    225  SItaux       Counter:       4   Parms: UU      U1      
           Vector  Mate for  SItaux       Diagnostic #    226  SItauy   exists 
 Computing Diagnostic #    226  SItauy       Counter:       4   Parms: VV      U1      
           Vector  Mate for  SItauy       Diagnostic #    225  SItaux   exists 
 Computing Diagnostic #    285  SIareaN      Counter:       4   Parms: SM      MX      
 Computing Diagnostic #    284  SIheffN      Counter:       4   Parms: SM      MX      
 Computing Diagnostic #    286  SIhsnowN     Counter:       4   Parms: SM      MX      
 Compute Stats, Diag. #    214  SIarea    vol(   0 ): 3.580E+14  Parms: SM      M1      
 Compute Stats, Diag. #    217  SIheff    vol(   0 ): 3.580E+14  Parms: SM      M1      
 Compute Stats, Diag. #    219  SIhsnow   vol(   0 ): 3.580E+14  Parms: SM      M1      
 Compute Stats, Diag. #     83  sIceLoad  vol(   0 ): 3.580E+14  Parms: SM      U1      
 Compute Stats, Diag. #    223  SIuice    vol(   0 ): 3.513E+14  Parms: UU      M1      
 Compute Stats, Diag. #    224  SIvice    vol(   0 ): 3.508E+14  Parms: VV      M1      
 Compute Stats, Diag. #    225  SItaux    vol(   0 ): 3.513E+14  Parms: UU      U1      
 Compute Stats, Diag. #    226  SItauy    vol(   0 ): 3.508E+14  Parms: VV      U1      
 cg2d: Sum(rhs),rhsMax =   1.00660461135854E+01  2.93507169307471E-01
 Compute Stats, Diag. #    214  SIarea    vol(   0 ): 3.580E+14  Parms: SM      M1      
 Compute Stats, Diag. #    217  SIheff    vol(   0 ): 3.580E+14  Parms: SM      M1      
 Compute Stats, Diag. #    219  SIhsnow   vol(   0 ): 3.580E+14  Parms: SM      M1      
 Compute Stats, Diag. #     83  sIceLoad  vol(   0 ): 3.580E+14  Parms: SM      U1      
 Compute Stats, Diag. #    223  SIuice    vol(   0 ): 3.513E+14  Parms: UU      M1      
 Compute Stats, Diag. #    224  SIvice    vol(   0 ): 3.508E+14  Parms: VV      M1      
 Compute Stats, Diag. #    225  SItaux    vol(   0 ): 3.513E+14  Parms: UU      U1      
 Compute Stats, Diag. #    226  SItauy    vol(   0 ): 3.508E+14  Parms: VV      U1      
 cg2d: Sum(rhs),rhsMax =   9.96822905045870E+00  2.93496404412223E-01
 Compute Stats, Diag. #    214  SIarea    vol(   0 ): 3.580E+14  Parms: SM      M1      
 Compute Stats, Diag. #    217  SIheff    vol(   0 ): 3.580E+14  Parms: SM      M1      
 Compute Stats, Diag. #    219  SIhsnow   vol(   0 ): 3.580E+14  Parms: SM      M1      
 Compute Stats, Diag. #     83  sIceLoad  vol(   0 ): 3.580E+14  Parms: SM      U1      
 Compute Stats, Diag. #    223  SIuice    vol(   0 ): 3.513E+14  Parms: UU      M1      
 Compute Stats, Diag. #    224  SIvice    vol(   0 ): 3.508E+14  Parms: VV      M1      
 Compute Stats, Diag. #    225  SItaux    vol(   0 ): 3.513E+14  Parms: UU      U1      
 Compute Stats, Diag. #    226  SItauy    vol(   0 ): 3.508E+14  Parms: VV      U1      
 cg2d: Sum(rhs),rhsMax =   9.87054875586179E+00  2.93485925827859E-01
 Compute Stats, Diag. #    214  SIarea    vol(   0 ): 3.580E+14  Parms: SM      M1      
 Compute Stats, Diag. #    217  SIheff    vol(   0 ): 3.580E+14  Parms: SM      M1      
 Compute Stats, Diag. #    219  SIhsnow   vol(   0 ): 3.580E+14  Parms: SM      M1      
 Compute Stats, Diag. #     83  sIceLoad  vol(   0 ): 3.580E+14  Parms: SM      U1      
 Compute Stats, Diag. #    223  SIuice    vol(   0 ): 3.513E+14  Parms: UU      M1      
 Compute Stats, Diag. #    224  SIvice    vol(   0 ): 3.508E+14  Parms: VV      M1      
 Compute Stats, Diag. #    225  SItaux    vol(   0 ): 3.513E+14  Parms: UU      U1      
 Compute Stats, Diag. #    226  SItauy    vol(   0 ): 3.508E+14  Parms: VV      U1      
 cg2d: Sum(rhs),rhsMax =   9.76384030342079E+00  2.93476111513763E-01
(PID.TID 0000.0001)      cg2d_init_res =   4.88922185327374E-02
(PID.TID 0000.0001)      cg2d_iters(min,last) =      -1      25
(PID.TID 0000.0001)      cg2d_last_res =   2.64967419935471E-05
(PID.TID 0000.0001) // =======================================================
(PID.TID 0000.0001) // Begin MONITOR dynamic field statistics
(PID.TID 0000.0001) // =======================================================
(PID.TID 0000.0001) %MON time_tsnumber                =                   608
(PID.TID 0000.0001) %MON time_secondsf                =   5.4720000000000E+05
(PID.TID 0000.0001) %MON dynstat_eta_max              =   1.0267228943319E+00
(PID.TID 0000.0001) %MON dynstat_eta_min              =  -1.8565596267675E+00
(PID.TID 0000.0001) %MON dynstat_eta_mean             =  -3.0886145243401E-04
(PID.TID 0000.0001) %MON dynstat_eta_sd               =   6.3311536323765E-01
(PID.TID 0000.0001) %MON dynstat_eta_del2             =   5.4481903219307E-05
(PID.TID 0000.0001) %MON dynstat_uvel_max             =   7.4963027905132E-01
(PID.TID 0000.0001) %MON dynstat_uvel_min             =  -6.0983163300022E-01
(PID.TID 0000.0001) %MON dynstat_uvel_mean            =   1.4543125306391E-03
(PID.TID 0000.0001) %MON dynstat_uvel_sd              =   1.8508864451544E-02
(PID.TID 0000.0001) %MON dynstat_uvel_del2            =   7.5129721658790E-06
(PID.TID 0000.0001) %MON dynstat_vvel_max             =   8.2450388186399E-01
(PID.TID 0000.0001) %MON dynstat_vvel_min             =  -8.7791414621108E-01
(PID.TID 0000.0001) %MON dynstat_vvel_mean            =   1.2046171292163E-03
(PID.TID 0000.0001) %MON dynstat_vvel_sd              =   1.9609955143101E-02
(PID.TID 0000.0001) %MON dynstat_vvel_del2            =   7.5667554603967E-06
(PID.TID 0000.0001) %MON dynstat_wvel_max             =   3.2302044366111E-04
(PID.TID 0000.0001) %MON dynstat_wvel_min             =  -8.1193654449960E-04
(PID.TID 0000.0001) %MON dynstat_wvel_mean            =   1.1143698864621E-10
(PID.TID 0000.0001) %MON dynstat_wvel_sd              =   1.7934793714491E-05
(PID.TID 0000.0001) %MON dynstat_wvel_del2            =   1.4619864335162E-08
(PID.TID 0000.0001) %MON dynstat_theta_max            =   3.2223718932531E+01
(PID.TID 0000.0001) %MON dynstat_theta_min            =  -2.0481422156161E+00
(PID.TID 0000.0001) %MON dynstat_theta_mean           =   3.5903536670305E+00
(PID.TID 0000.0001) %MON dynstat_theta_sd             =   4.4366486628305E+00
(PID.TID 0000.0001) %MON dynstat_theta_del2           =   9.3429092737756E-05
(PID.TID 0000.0001) %MON dynstat_salt_max             =   4.0711556553417E+01
(PID.TID 0000.0001) %MON dynstat_salt_min             =   8.8846152526521E+00
(PID.TID 0000.0001) %MON dynstat_salt_mean            =   3.4725574089317E+01
(PID.TID 0000.0001) %MON dynstat_salt_sd              =   3.7703259229008E-01
(PID.TID 0000.0001) %MON dynstat_salt_del2            =   3.5090566757268E-05
(PID.TID 0000.0001) %MON dynstat_sst_max              =   3.2223718932531E+01
(PID.TID 0000.0001) %MON dynstat_sst_min              =  -1.8107509544690E+00
(PID.TID 0000.0001) %MON dynstat_sst_mean             =   1.8488147448326E+01
(PID.TID 0000.0001) %MON dynstat_sst_sd               =   1.0228606878568E+01
(PID.TID 0000.0001) %MON dynstat_sst_del2             =   8.1312591469597E-04
(PID.TID 0000.0001) %MON dynstat_sss_max              =   3.9106802451775E+01
(PID.TID 0000.0001) %MON dynstat_sss_min              =   8.8846152526521E+00
(PID.TID 0000.0001) %MON dynstat_sss_mean             =   3.4700266865917E+01
(PID.TID 0000.0001) %MON dynstat_sss_sd               =   1.1642666311272E+00
(PID.TID 0000.0001) %MON dynstat_sss_del2             =   1.0777227731626E-03
(PID.TID 0000.0001) %MON forcing_qnet_max             =   1.0603196955120E+03
(PID.TID 0000.0001) %MON forcing_qnet_min             =  -1.1696055049468E+03
(PID.TID 0000.0001) %MON forcing_qnet_mean            =   2.0598229624193E+01
(PID.TID 0000.0001) %MON forcing_qnet_sd              =   1.7257974148329E+02
(PID.TID 0000.0001) %MON forcing_qnet_del2            =   3.2504733520235E-01
(PID.TID 0000.0001) %MON forcing_qsw_max              =   0.0000000000000E+00
(PID.TID 0000.0001) %MON forcing_qsw_min              =  -1.0784783773834E+02
(PID.TID 0000.0001) %MON forcing_qsw_mean             =  -1.6684307731615E+01
(PID.TID 0000.0001) %MON forcing_qsw_sd               =   2.6275296615584E+01
(PID.TID 0000.0001) %MON forcing_qsw_del2             =   2.1378613176828E-02
(PID.TID 0000.0001) %MON forcing_empmr_max            =   9.0901693329215E-04
(PID.TID 0000.0001) %MON forcing_empmr_min            =  -7.8684970736504E-02
(PID.TID 0000.0001) %MON forcing_empmr_mean           =  -3.8593550004814E-06
(PID.TID 0000.0001) %MON forcing_empmr_sd             =   3.1320816028595E-04
(PID.TID 0000.0001) %MON forcing_empmr_del2           =   4.2754791086521E-06
(PID.TID 0000.0001) %MON forcing_fu_max               =   1.1702394485474E+00
(PID.TID 0000.0001) %MON forcing_fu_min               =  -1.2202580571175E+00
(PID.TID 0000.0001) %MON forcing_fu_mean              =   2.8988162736020E-03
(PID.TID 0000.0001) %MON forcing_fu_sd                =   1.1152081028519E-01
(PID.TID 0000.0001) %MON forcing_fu_del2              =   1.6160938866822E-04
(PID.TID 0000.0001) %MON forcing_fv_max               =   9.8350091981518E-01
(PID.TID 0000.0001) %MON forcing_fv_min               =  -8.2733681797981E-01
(PID.TID 0000.0001) %MON forcing_fv_mean              =  -8.5870372703821E-03
(PID.TID 0000.0001) %MON forcing_fv_sd                =   1.0722860755527E-01
(PID.TID 0000.0001) %MON forcing_fv_del2              =   1.4182800405254E-04
(PID.TID 0000.0001) %MON trAdv_CFL_u_max              =   1.3110195026613E-02
(PID.TID 0000.0001) %MON trAdv_CFL_v_max              =   1.4381794174971E-02
(PID.TID 0000.0001) %MON trAdv_CFL_w_max              =   1.9336513029880E-02
(PID.TID 0000.0001) %MON advcfl_uvel_max              =   8.5101055497479E-03
(PID.TID 0000.0001) %MON advcfl_vvel_max              =   1.4635689394567E-02
(PID.TID 0000.0001) %MON advcfl_wvel_max              =   1.7126128837629E-02
(PID.TID 0000.0001) %MON advcfl_W_hf_max              =   1.7957548493656E-02
(PID.TID 0000.0001) %MON pe_b_mean                    =   5.2725914665514E-04
(PID.TID 0000.0001) %MON ke_max                       =   3.8567614262810E-01
(PID.TID 0000.0001) %MON ke_mean                      =   3.5233707245641E-04
(PID.TID 0000.0001) %MON ke_vol                       =   1.3349977651541E+18
(PID.TID 0000.0001) %MON vort_r_min                   =  -1.5194277987069E-05
(PID.TID 0000.0001) %MON vort_r_max                   =   2.2878452148173E-05
(PID.TID 0000.0001) %MON vort_a_mean                  =  -1.9727864647440E-05
(PID.TID 0000.0001) %MON vort_a_sd                    =   7.4543027566983E-05
(PID.TID 0000.0001) %MON vort_p_mean                  =  -2.1760535355088E-05
(PID.TID 0000.0001) %MON vort_p_sd                    =   9.7246331389189E-05
(PID.TID 0000.0001) %MON surfExpan_theta_mean         =  -8.6899390587804E-08
(PID.TID 0000.0001) %MON surfExpan_salt_mean          =   1.3787460077856E-08
(PID.TID 0000.0001) // =======================================================
(PID.TID 0000.0001) // End MONITOR dynamic field statistics
(PID.TID 0000.0001) // =======================================================
(PID.TID 0000.0001) // =======================================================
(PID.TID 0000.0001) // Begin MONITOR SEAICE statistics
(PID.TID 0000.0001) // =======================================================
(PID.TID 0000.0001) %MON seaice_tsnumber              =                   608
(PID.TID 0000.0001) %MON seaice_time_sec              =   5.4720000000000E+05
(PID.TID 0000.0001) %MON seaice_uice_max              =   4.0000000000000E-01
(PID.TID 0000.0001) %MON seaice_uice_min              =  -4.0000000000000E-01
(PID.TID 0000.0001) %MON seaice_uice_mean             =  -8.3054598624025E-03
(PID.TID 0000.0001) %MON seaice_uice_sd               =   1.9802383574176E-01
(PID.TID 0000.0001) %MON seaice_uice_del2             =   2.2931571122150E-04
(PID.TID 0000.0001) %MON seaice_vice_max              =   4.0000000000000E-01
(PID.TID 0000.0001) %MON seaice_vice_min              =  -4.0000000000000E-01
(PID.TID 0000.0001) %MON seaice_vice_mean             =  -2.1960776359499E-02
(PID.TID 0000.0001) %MON seaice_vice_sd               =   2.1302038025672E-01
(PID.TID 0000.0001) %MON seaice_vice_del2             =   2.3932563818061E-04
(PID.TID 0000.0001) %MON seaice_area_max              =   1.0000000000000E+00
(PID.TID 0000.0001) %MON seaice_area_min              =   0.0000000000000E+00
(PID.TID 0000.0001) %MON seaice_area_mean             =   6.6426384253564E-02
(PID.TID 0000.0001) %MON seaice_area_sd               =   2.3085067283605E-01
(PID.TID 0000.0001) %MON seaice_area_del2             =   4.0131337808672E-04
(PID.TID 0000.0001) %MON seaice_heff_max              =   2.5040602942929E+01
(PID.TID 0000.0001) %MON seaice_heff_min              =   0.0000000000000E+00
(PID.TID 0000.0001) %MON seaice_heff_mean             =   2.1325198243361E-01
(PID.TID 0000.0001) %MON seaice_heff_sd               =   1.0671890836992E+00
(PID.TID 0000.0001) %MON seaice_heff_del2             =   3.8550214196541E-03
(PID.TID 0000.0001) %MON seaice_hsnow_max             =   8.2707932423800E+00
(PID.TID 0000.0001) %MON seaice_hsnow_min             =   0.0000000000000E+00
(PID.TID 0000.0001) %MON seaice_hsnow_mean            =   2.4125484921858E-02
(PID.TID 0000.0001) %MON seaice_hsnow_sd              =   1.5640242001508E-01
(PID.TID 0000.0001) %MON seaice_hsnow_del2            =   1.2417376710778E-03
(PID.TID 0000.0001) // =======================================================
(PID.TID 0000.0001) // End MONITOR SEAICE statistics
(PID.TID 0000.0001) // =======================================================
 Computing Diagnostic #     86  oceQnet      Counter:       4   Parms: SM      U1      
 Computing Diagnostic #     87  oceQsw       Counter:       4   Parms: SM      U1      
 Computing Diagnostic #     84  oceFWflx     Counter:       4   Parms: SM      U1      
 Computing Diagnostic #     85  oceSflux     Counter:       4   Parms: SM      U1      
 Computing Diagnostic #     80  oceTAUX      Counter:       4   Parms: UU      U1      
           Vector  Mate for  oceTAUX      Diagnostic #     81  oceTAUY  exists 
 Computing Diagnostic #     81  oceTAUY      Counter:       4   Parms: VV      U1      
           Vector  Mate for  oceTAUY      Diagnostic #     80  oceTAUX  exists 
 Computing Diagnostic #     26  THETA        Counter:       4   Parms: SMR     MR      
 Computing Diagnostic #     27  SALT         Counter:       4   Parms: SMR     MR      
 Computing Diagnostic #     30  UVEL         Counter:       4   Parms: UUR     MR      
           Vector  Mate for  UVEL         Diagnostic #     31  VVEL     exists 
 Computing Diagnostic #     31  VVEL         Counter:       4   Parms: VVR     MR      
           Vector  Mate for  VVEL         Diagnostic #     30  UVEL     exists 
 Computing Diagnostic #    214  SIarea       Counter:       4   Parms: SM      M1      
 Computing Diagnostic #    217  SIheff       Counter:       4   Parms: SM      M1      
 Computing Diagnostic #    219  SIhsnow      Counter:       4   Parms: SM      M1      
 Computing Diagnostic #     83  sIceLoad     Counter:       4   Parms: SM      U1      
 Computing Diagnostic #    223  SIuice       Counter:       4   Parms: UU      M1      
           Vector  Mate for  SIuice       Diagnostic #    224  SIvice   exists 
 Computing Diagnostic #    224  SIvice       Counter:       4   Parms: VV      M1      
           Vector  Mate for  SIvice       Diagnostic #    223  SIuice   exists 
 Computing Diagnostic #    225  SItaux       Counter:       4   Parms: UU      U1      
           Vector  Mate for  SItaux       Diagnostic #    226  SItauy   exists 
 Computing Diagnostic #    226  SItauy       Counter:       4   Parms: VV      U1      
           Vector  Mate for  SItauy       Diagnostic #    225  SItaux   exists 
 Computing Diagnostic #    285  SIareaN      Counter:       4   Parms: SM      MX      
 Computing Diagnostic #    284  SIheffN      Counter:       4   Parms: SM      MX      
 Computing Diagnostic #    286  SIhsnowN     Counter:       4   Parms: SM      MX      
 Compute Stats, Diag. #    214  SIarea    vol(   0 ): 3.580E+14  Parms: SM      M1      
 Compute Stats, Diag. #    217  SIheff    vol(   0 ): 3.580E+14  Parms: SM      M1      
 Compute Stats, Diag. #    219  SIhsnow   vol(   0 ): 3.580E+14  Parms: SM      M1      
 Compute Stats, Diag. #     83  sIceLoad  vol(   0 ): 3.580E+14  Parms: SM      U1      
 Compute Stats, Diag. #    223  SIuice    vol(   0 ): 3.513E+14  Parms: UU      M1      
 Compute Stats, Diag. #    224  SIvice    vol(   0 ): 3.508E+14  Parms: VV      M1      
 Compute Stats, Diag. #    225  SItaux    vol(   0 ): 3.513E+14  Parms: UU      U1      
 Compute Stats, Diag. #    226  SItauy    vol(   0 ): 3.508E+14  Parms: VV      U1      
 cg2d: Sum(rhs),rhsMax =   9.66107138120493E+00  2.93466764829894E-01
 Compute Stats, Diag. #    214  SIarea    vol(   0 ): 3.580E+14  Parms: SM      M1      
 Compute Stats, Diag. #    217  SIheff    vol(   0 ): 3.580E+14  Parms: SM      M1      
 Compute Stats, Diag. #    219  SIhsnow   vol(   0 ): 3.580E+14  Parms: SM      M1      
 Compute Stats, Diag. #     83  sIceLoad  vol(   0 ): 3.580E+14  Parms: SM      U1      
 Compute Stats, Diag. #    223  SIuice    vol(   0 ): 3.513E+14  Parms: UU      M1      
 Compute Stats, Diag. #    224  SIvice    vol(   0 ): 3.508E+14  Parms: VV      M1      
 Compute Stats, Diag. #    225  SItaux    vol(   0 ): 3.513E+14  Parms: UU      U1      
 Compute Stats, Diag. #    226  SItauy    vol(   0 ): 3.508E+14  Parms: VV      U1      
 cg2d: Sum(rhs),rhsMax =   9.55062111546624E+00  2.93458667774395E-01
 Compute Stats, Diag. #    214  SIarea    vol(   0 ): 3.580E+14  Parms: SM      M1      
 Compute Stats, Diag. #    217  SIheff    vol(   0 ): 3.580E+14  Parms: SM      M1      
 Compute Stats, Diag. #    219  SIhsnow   vol(   0 ): 3.580E+14  Parms: SM      M1      
 Compute Stats, Diag. #     83  sIceLoad  vol(   0 ): 3.580E+14  Parms: SM      U1      
 Compute Stats, Diag. #    223  SIuice    vol(   0 ): 3.513E+14  Parms: UU      M1      
 Compute Stats, Diag. #    224  SIvice    vol(   0 ): 3.508E+14  Parms: VV      M1      
 Compute Stats, Diag. #    225  SItaux    vol(   0 ): 3.513E+14  Parms: UU      U1      
 Compute Stats, Diag. #    226  SItauy    vol(   0 ): 3.508E+14  Parms: VV      U1      
 cg2d: Sum(rhs),rhsMax =   9.43504622636483E+00  2.93450977303198E-01
 Compute Stats, Diag. #    214  SIarea    vol(   0 ): 3.580E+14  Parms: SM      M1      
 Compute Stats, Diag. #    217  SIheff    vol(   0 ): 3.580E+14  Parms: SM      M1      
 Compute Stats, Diag. #    219  SIhsnow   vol(   0 ): 3.580E+14  Parms: SM      M1      
 Compute Stats, Diag. #     83  sIceLoad  vol(   0 ): 3.580E+14  Parms: SM      U1      
 Compute Stats, Diag. #    223  SIuice    vol(   0 ): 3.513E+14  Parms: UU      M1      
 Compute Stats, Diag. #    224  SIvice    vol(   0 ): 3.508E+14  Parms: VV      M1      
 Compute Stats, Diag. #    225  SItaux    vol(   0 ): 3.513E+14  Parms: UU      U1      
 Compute Stats, Diag. #    226  SItauy    vol(   0 ): 3.508E+14  Parms: VV      U1      
 cg2d: Sum(rhs),rhsMax =   9.32244983612067E+00  2.93444040578286E-01
 Computing Diagnostic #     86  oceQnet      Counter:       4   Parms: SM      U1      
 Computing Diagnostic #     87  oceQsw       Counter:       4   Parms: SM      U1      
 Computing Diagnostic #     84  oceFWflx     Counter:       4   Parms: SM      U1      
 Computing Diagnostic #     85  oceSflux     Counter:       4   Parms: SM      U1      
 Computing Diagnostic #     80  oceTAUX      Counter:       4   Parms: UU      U1      
           Vector  Mate for  oceTAUX      Diagnostic #     81  oceTAUY  exists 
 Computing Diagnostic #     81  oceTAUY      Counter:       4   Parms: VV      U1      
           Vector  Mate for  oceTAUY      Diagnostic #     80  oceTAUX  exists 
 Computing Diagnostic #     26  THETA        Counter:       4   Parms: SMR     MR      
 Computing Diagnostic #     27  SALT         Counter:       4   Parms: SMR     MR      
 Computing Diagnostic #     30  UVEL         Counter:       4   Parms: UUR     MR      
           Vector  Mate for  UVEL         Diagnostic #     31  VVEL     exists 
 Computing Diagnostic #     31  VVEL         Counter:       4   Parms: VVR     MR      
           Vector  Mate for  VVEL         Diagnostic #     30  UVEL     exists 
 Computing Diagnostic #    214  SIarea       Counter:       4   Parms: SM      M1      
 Computing Diagnostic #    217  SIheff       Counter:       4   Parms: SM      M1      
 Computing Diagnostic #    219  SIhsnow      Counter:       4   Parms: SM      M1      
 Computing Diagnostic #     83  sIceLoad     Counter:       4   Parms: SM      U1      
 Computing Diagnostic #    223  SIuice       Counter:       4   Parms: UU      M1      
           Vector  Mate for  SIuice       Diagnostic #    224  SIvice   exists 
 Computing Diagnostic #    224  SIvice       Counter:       4   Parms: VV      M1      
           Vector  Mate for  SIvice       Diagnostic #    223  SIuice   exists 
 Computing Diagnostic #    225  SItaux       Counter:       4   Parms: UU      U1      
           Vector  Mate for  SItaux       Diagnostic #    226  SItauy   exists 
 Computing Diagnostic #    226  SItauy       Counter:       4   Parms: VV      U1      
           Vector  Mate for  SItauy       Diagnostic #    225  SItaux   exists 
 Computing Diagnostic #    285  SIareaN      Counter:       4   Parms: SM      MX      
 Computing Diagnostic #    284  SIheffN      Counter:       4   Parms: SM      MX      
 Computing Diagnostic #    286  SIhsnowN     Counter:       4   Parms: SM      MX      
 Compute Stats, Diag. #    214  SIarea    vol(   0 ): 3.580E+14  Parms: SM      M1      
 Compute Stats, Diag. #    217  SIheff    vol(   0 ): 3.580E+14  Parms: SM      M1      
 Compute Stats, Diag. #    219  SIhsnow   vol(   0 ): 3.580E+14  Parms: SM      M1      
 Compute Stats, Diag. #     83  sIceLoad  vol(   0 ): 3.580E+14  Parms: SM      U1      
 Compute Stats, Diag. #    223  SIuice    vol(   0 ): 3.513E+14  Parms: UU      M1      
 Compute Stats, Diag. #    224  SIvice    vol(   0 ): 3.508E+14  Parms: VV      M1      
 Compute Stats, Diag. #    225  SItaux    vol(   0 ): 3.513E+14  Parms: UU      U1      
 Compute Stats, Diag. #    226  SItauy    vol(   0 ): 3.508E+14  Parms: VV      U1      
 cg2d: Sum(rhs),rhsMax =   9.20143001769016E+00  2.93438108164478E-01
 Compute Stats, Diag. #    214  SIarea    vol(   0 ): 3.580E+14  Parms: SM      M1      
 Compute Stats, Diag. #    217  SIheff    vol(   0 ): 3.580E+14  Parms: SM      M1      
 Compute Stats, Diag. #    219  SIhsnow   vol(   0 ): 3.580E+14  Parms: SM      M1      
 Compute Stats, Diag. #     83  sIceLoad  vol(   0 ): 3.580E+14  Parms: SM      U1      
 Compute Stats, Diag. #    223  SIuice    vol(   0 ): 3.513E+14  Parms: UU      M1      
 Compute Stats, Diag. #    224  SIvice    vol(   0 ): 3.508E+14  Parms: VV      M1      
 Compute Stats, Diag. #    225  SItaux    vol(   0 ): 3.513E+14  Parms: UU      U1      
 Compute Stats, Diag. #    226  SItauy    vol(   0 ): 3.508E+14  Parms: VV      U1      
 cg2d: Sum(rhs),rhsMax =   9.07844693163653E+00  2.93431705798817E-01
 Compute Stats, Diag. #    214  SIarea    vol(   0 ): 3.580E+14  Parms: SM      M1      
 Compute Stats, Diag. #    217  SIheff    vol(   0 ): 3.580E+14  Parms: SM      M1      
 Compute Stats, Diag. #    219  SIhsnow   vol(   0 ): 3.580E+14  Parms: SM      M1      
 Compute Stats, Diag. #     83  sIceLoad  vol(   0 ): 3.580E+14  Parms: SM      U1      
 Compute Stats, Diag. #    223  SIuice    vol(   0 ): 3.513E+14  Parms: UU      M1      
 Compute Stats, Diag. #    224  SIvice    vol(   0 ): 3.508E+14  Parms: VV      M1      
 Compute Stats, Diag. #    225  SItaux    vol(   0 ): 3.513E+14  Parms: UU      U1      
 Compute Stats, Diag. #    226  SItauy    vol(   0 ): 3.508E+14  Parms: VV      U1      
 cg2d: Sum(rhs),rhsMax =   8.95185700245739E+00  2.93425199365634E-01
 Compute Stats, Diag. #    214  SIarea    vol(   0 ): 3.580E+14  Parms: SM      M1      
 Compute Stats, Diag. #    217  SIheff    vol(   0 ): 3.580E+14  Parms: SM      M1      
 Compute Stats, Diag. #    219  SIhsnow   vol(   0 ): 3.580E+14  Parms: SM      M1      
 Compute Stats, Diag. #     83  sIceLoad  vol(   0 ): 3.580E+14  Parms: SM      U1      
 Compute Stats, Diag. #    223  SIuice    vol(   0 ): 3.513E+14  Parms: UU      M1      
 Compute Stats, Diag. #    224  SIvice    vol(   0 ): 3.508E+14  Parms: VV      M1      
 Compute Stats, Diag. #    225  SItaux    vol(   0 ): 3.513E+14  Parms: UU      U1      
 Compute Stats, Diag. #    226  SItauy    vol(   0 ): 3.508E+14  Parms: VV      U1      
 cg2d: Sum(rhs),rhsMax =   8.81959026249075E+00  2.93417703981849E-01
(PID.TID 0000.0001)      cg2d_init_res =   4.84655403514206E-02
(PID.TID 0000.0001)      cg2d_iters(min,last) =      -1      25
(PID.TID 0000.0001)      cg2d_last_res =   2.51213630168391E-05
(PID.TID 0000.0001) // =======================================================
(PID.TID 0000.0001) // Begin MONITOR dynamic field statistics
(PID.TID 0000.0001) // =======================================================
(PID.TID 0000.0001) %MON time_tsnumber                =                   616
(PID.TID 0000.0001) %MON time_secondsf                =   5.5440000000000E+05
(PID.TID 0000.0001) %MON dynstat_eta_max              =   1.0230842037342E+00
(PID.TID 0000.0001) %MON dynstat_eta_min              =  -1.8555913379262E+00
(PID.TID 0000.0001) %MON dynstat_eta_mean             =  -2.7899180790494E-04
(PID.TID 0000.0001) %MON dynstat_eta_sd               =   6.3299578590982E-01
(PID.TID 0000.0001) %MON dynstat_eta_del2             =   5.4369694393695E-05
(PID.TID 0000.0001) %MON dynstat_uvel_max             =   7.4510521573239E-01
(PID.TID 0000.0001) %MON dynstat_uvel_min             =  -6.0695957928208E-01
(PID.TID 0000.0001) %MON dynstat_uvel_mean            =   1.4485505972610E-03
(PID.TID 0000.0001) %MON dynstat_uvel_sd              =   1.8512799089160E-02
(PID.TID 0000.0001) %MON dynstat_uvel_del2            =   7.5101059135957E-06
(PID.TID 0000.0001) %MON dynstat_vvel_max             =   7.9601409648339E-01
(PID.TID 0000.0001) %MON dynstat_vvel_min             =  -8.8152606075358E-01
(PID.TID 0000.0001) %MON dynstat_vvel_mean            =   1.1944726719923E-03
(PID.TID 0000.0001) %MON dynstat_vvel_sd              =   1.9584153692312E-02
(PID.TID 0000.0001) %MON dynstat_vvel_del2            =   7.5389566325740E-06
(PID.TID 0000.0001) %MON dynstat_wvel_max             =   3.1878449248819E-04
(PID.TID 0000.0001) %MON dynstat_wvel_min             =  -8.1734104471055E-04
(PID.TID 0000.0001) %MON dynstat_wvel_mean            =  -3.3808309922936E-09
(PID.TID 0000.0001) %MON dynstat_wvel_sd              =   1.8105018172395E-05
(PID.TID 0000.0001) %MON dynstat_wvel_del2            =   1.4622762013264E-08
(PID.TID 0000.0001) %MON dynstat_theta_max            =   3.2229303353120E+01
(PID.TID 0000.0001) %MON dynstat_theta_min            =  -2.0443172119589E+00
(PID.TID 0000.0001) %MON dynstat_theta_mean           =   3.5903384981499E+00
(PID.TID 0000.0001) %MON dynstat_theta_sd             =   4.4366126392236E+00
(PID.TID 0000.0001) %MON dynstat_theta_del2           =   9.3363586882796E-05
(PID.TID 0000.0001) %MON dynstat_salt_max             =   4.0711556524553E+01
(PID.TID 0000.0001) %MON dynstat_salt_min             =   8.7912003932373E+00
(PID.TID 0000.0001) %MON dynstat_salt_mean            =   3.4725573834684E+01
(PID.TID 0000.0001) %MON dynstat_salt_sd              =   3.7703464261175E-01
(PID.TID 0000.0001) %MON dynstat_salt_del2            =   3.5440260794743E-05
(PID.TID 0000.0001) %MON dynstat_sst_max              =   3.2229303353120E+01
(PID.TID 0000.0001) %MON dynstat_sst_min              =  -1.8126815855957E+00
(PID.TID 0000.0001) %MON dynstat_sst_mean             =   1.8483209975307E+01
(PID.TID 0000.0001) %MON dynstat_sst_sd               =   1.0228961313062E+01
(PID.TID 0000.0001) %MON dynstat_sst_del2             =   8.1204830456855E-04
(PID.TID 0000.0001) %MON dynstat_sss_max              =   3.9106561262670E+01
(PID.TID 0000.0001) %MON dynstat_sss_min              =   8.7912003932373E+00
(PID.TID 0000.0001) %MON dynstat_sss_mean             =   3.4700259760898E+01
(PID.TID 0000.0001) %MON dynstat_sss_sd               =   1.1647214133808E+00
(PID.TID 0000.0001) %MON dynstat_sss_del2             =   1.0953765302909E-03
(PID.TID 0000.0001) %MON forcing_qnet_max             =   7.6811464306231E+02
(PID.TID 0000.0001) %MON forcing_qnet_min             =  -8.6763777853996E+02
(PID.TID 0000.0001) %MON forcing_qnet_mean            =   3.9370223297590E+01
(PID.TID 0000.0001) %MON forcing_qnet_sd              =   1.7047829750873E+02
(PID.TID 0000.0001) %MON forcing_qnet_del2            =   3.1396553629760E-01
(PID.TID 0000.0001) %MON forcing_qsw_max              =   0.0000000000000E+00
(PID.TID 0000.0001) %MON forcing_qsw_min              =  -1.0778855895632E+02
(PID.TID 0000.0001) %MON forcing_qsw_mean             =  -1.4444299074694E+01
(PID.TID 0000.0001) %MON forcing_qsw_sd               =   2.6322984672612E+01
(PID.TID 0000.0001) %MON forcing_qsw_del2             =   1.9009893120514E-02
(PID.TID 0000.0001) %MON forcing_empmr_max            =   1.4694553101435E-03
(PID.TID 0000.0001) %MON forcing_empmr_min            =  -1.1253458261490E-01
(PID.TID 0000.0001) %MON forcing_empmr_mean           =  -4.7837288668815E-06
(PID.TID 0000.0001) %MON forcing_empmr_sd             =   3.8228812251768E-04
(PID.TID 0000.0001) %MON forcing_empmr_del2           =   5.8385785700895E-06
(PID.TID 0000.0001) %MON forcing_fu_max               =   1.1428818106651E+00
(PID.TID 0000.0001) %MON forcing_fu_min               =  -1.1654034852981E+00
(PID.TID 0000.0001) %MON forcing_fu_mean              =   3.2223046286681E-03
(PID.TID 0000.0001) %MON forcing_fu_sd                =   1.1101390364625E-01
(PID.TID 0000.0001) %MON forcing_fu_del2              =   1.6131825537421E-04
(PID.TID 0000.0001) %MON forcing_fv_max               =   9.6205832927892E-01
(PID.TID 0000.0001) %MON forcing_fv_min               =  -7.8691622614860E-01
(PID.TID 0000.0001) %MON forcing_fv_mean              =  -9.9944278950007E-03
(PID.TID 0000.0001) %MON forcing_fv_sd                =   1.0787319766232E-01
(PID.TID 0000.0001) %MON forcing_fv_del2              =   1.4278913772526E-04
(PID.TID 0000.0001) %MON trAdv_CFL_u_max              =   1.3054682355425E-02
(PID.TID 0000.0001) %MON trAdv_CFL_v_max              =   1.3997075405455E-02
(PID.TID 0000.0001) %MON trAdv_CFL_w_max              =   1.9277811952834E-02
(PID.TID 0000.0001) %MON advcfl_uvel_max              =   8.4298744450816E-03
(PID.TID 0000.0001) %MON advcfl_vvel_max              =   1.4129969944459E-02
(PID.TID 0000.0001) %MON advcfl_wvel_max              =   1.9685349728554E-02
(PID.TID 0000.0001) %MON advcfl_W_hf_max              =   1.8079211535957E-02
(PID.TID 0000.0001) %MON pe_b_mean                    =   5.2705997005527E-04
(PID.TID 0000.0001) %MON ke_max                       =   3.8863568657450E-01
(PID.TID 0000.0001) %MON ke_mean                      =   3.5189979717754E-04
(PID.TID 0000.0001) %MON ke_vol                       =   1.3349977755584E+18
(PID.TID 0000.0001) %MON vort_r_min                   =  -1.4635261076780E-05
(PID.TID 0000.0001) %MON vort_r_max                   =   2.2039668861572E-05
(PID.TID 0000.0001) %MON vort_a_mean                  =  -1.9727864647440E-05
(PID.TID 0000.0001) %MON vort_a_sd                    =   7.4543025609513E-05
(PID.TID 0000.0001) %MON vort_p_mean                  =  -2.1760535155829E-05
(PID.TID 0000.0001) %MON vort_p_sd                    =   9.7246181933965E-05
(PID.TID 0000.0001) %MON surfExpan_theta_mean         =  -9.7138444942211E-08
(PID.TID 0000.0001) %MON surfExpan_salt_mean          =   2.8330442094254E-08
(PID.TID 0000.0001) // =======================================================
(PID.TID 0000.0001) // End MONITOR dynamic field statistics
(PID.TID 0000.0001) // =======================================================
(PID.TID 0000.0001) // =======================================================
(PID.TID 0000.0001) // Begin MONITOR SEAICE statistics
(PID.TID 0000.0001) // =======================================================
(PID.TID 0000.0001) %MON seaice_tsnumber              =                   616
(PID.TID 0000.0001) %MON seaice_time_sec              =   5.5440000000000E+05
(PID.TID 0000.0001) %MON seaice_uice_max              =   4.0000000000000E-01
(PID.TID 0000.0001) %MON seaice_uice_min              =  -4.0000000000000E-01
(PID.TID 0000.0001) %MON seaice_uice_mean             =  -8.3054598624025E-03
(PID.TID 0000.0001) %MON seaice_uice_sd               =   1.9802383574176E-01
(PID.TID 0000.0001) %MON seaice_uice_del2             =   2.2931571122150E-04
(PID.TID 0000.0001) %MON seaice_vice_max              =   4.0000000000000E-01
(PID.TID 0000.0001) %MON seaice_vice_min              =  -4.0000000000000E-01
(PID.TID 0000.0001) %MON seaice_vice_mean             =  -2.1960776359499E-02
(PID.TID 0000.0001) %MON seaice_vice_sd               =   2.1302038025672E-01
(PID.TID 0000.0001) %MON seaice_vice_del2             =   2.3932563818061E-04
(PID.TID 0000.0001) %MON seaice_area_max              =   1.0000000000000E+00
(PID.TID 0000.0001) %MON seaice_area_min              =   0.0000000000000E+00
(PID.TID 0000.0001) %MON seaice_area_mean             =   6.6388513915992E-02
(PID.TID 0000.0001) %MON seaice_area_sd               =   2.3077831503519E-01
(PID.TID 0000.0001) %MON seaice_area_del2             =   4.0073972531845E-04
(PID.TID 0000.0001) %MON seaice_heff_max              =   2.5037866182625E+01
(PID.TID 0000.0001) %MON seaice_heff_min              =   0.0000000000000E+00
(PID.TID 0000.0001) %MON seaice_heff_mean             =   2.1321493071832E-01
(PID.TID 0000.0001) %MON seaice_heff_sd               =   1.0671531709189E+00
(PID.TID 0000.0001) %MON seaice_heff_del2             =   3.8542606321447E-03
(PID.TID 0000.0001) %MON seaice_hsnow_max             =   8.2698967973120E+00
(PID.TID 0000.0001) %MON seaice_hsnow_min             =   0.0000000000000E+00
(PID.TID 0000.0001) %MON seaice_hsnow_mean            =   2.4125826300330E-02
(PID.TID 0000.0001) %MON seaice_hsnow_sd              =   1.5639642289450E-01
(PID.TID 0000.0001) %MON seaice_hsnow_del2            =   1.2415996939121E-03
(PID.TID 0000.0001) // =======================================================
(PID.TID 0000.0001) // End MONITOR SEAICE statistics
(PID.TID 0000.0001) // =======================================================
 Computing Diagnostic #     86  oceQnet      Counter:       4   Parms: SM      U1      
 Computing Diagnostic #     87  oceQsw       Counter:       4   Parms: SM      U1      
 Computing Diagnostic #     84  oceFWflx     Counter:       4   Parms: SM      U1      
 Computing Diagnostic #     85  oceSflux     Counter:       4   Parms: SM      U1      
 Computing Diagnostic #     80  oceTAUX      Counter:       4   Parms: UU      U1      
           Vector  Mate for  oceTAUX      Diagnostic #     81  oceTAUY  exists 
 Computing Diagnostic #     81  oceTAUY      Counter:       4   Parms: VV      U1      
           Vector  Mate for  oceTAUY      Diagnostic #     80  oceTAUX  exists 
 Computing Diagnostic #     26  THETA        Counter:       4   Parms: SMR     MR      
 Computing Diagnostic #     27  SALT         Counter:       4   Parms: SMR     MR      
 Computing Diagnostic #     30  UVEL         Counter:       4   Parms: UUR     MR      
           Vector  Mate for  UVEL         Diagnostic #     31  VVEL     exists 
 Computing Diagnostic #     31  VVEL         Counter:       4   Parms: VVR     MR      
           Vector  Mate for  VVEL         Diagnostic #     30  UVEL     exists 
 Computing Diagnostic #    214  SIarea       Counter:       4   Parms: SM      M1      
 Computing Diagnostic #    217  SIheff       Counter:       4   Parms: SM      M1      
 Computing Diagnostic #    219  SIhsnow      Counter:       4   Parms: SM      M1      
 Computing Diagnostic #     83  sIceLoad     Counter:       4   Parms: SM      U1      
 Computing Diagnostic #    223  SIuice       Counter:       4   Parms: UU      M1      
           Vector  Mate for  SIuice       Diagnostic #    224  SIvice   exists 
 Computing Diagnostic #    224  SIvice       Counter:       4   Parms: VV      M1      
           Vector  Mate for  SIvice       Diagnostic #    223  SIuice   exists 
 Computing Diagnostic #    225  SItaux       Counter:       4   Parms: UU      U1      
           Vector  Mate for  SItaux       Diagnostic #    226  SItauy   exists 
 Computing Diagnostic #    226  SItauy       Counter:       4   Parms: VV      U1      
           Vector  Mate for  SItauy       Diagnostic #    225  SItaux   exists 
 Computing Diagnostic #    285  SIareaN      Counter:       4   Parms: SM      MX      
 Computing Diagnostic #    284  SIheffN      Counter:       4   Parms: SM      MX      
 Computing Diagnostic #    286  SIhsnowN     Counter:       4   Parms: SM      MX      
 Compute Stats, Diag. #    214  SIarea    vol(   0 ): 3.580E+14  Parms: SM      M1      
 Compute Stats, Diag. #    217  SIheff    vol(   0 ): 3.580E+14  Parms: SM      M1      
 Compute Stats, Diag. #    219  SIhsnow   vol(   0 ): 3.580E+14  Parms: SM      M1      
 Compute Stats, Diag. #     83  sIceLoad  vol(   0 ): 3.580E+14  Parms: SM      U1      
 Compute Stats, Diag. #    223  SIuice    vol(   0 ): 3.513E+14  Parms: UU      M1      
 Compute Stats, Diag. #    224  SIvice    vol(   0 ): 3.508E+14  Parms: VV      M1      
 Compute Stats, Diag. #    225  SItaux    vol(   0 ): 3.513E+14  Parms: UU      U1      
 Compute Stats, Diag. #    226  SItauy    vol(   0 ): 3.508E+14  Parms: VV      U1      
 cg2d: Sum(rhs),rhsMax =   8.67724122331940E+00  2.93409260525452E-01
 Compute Stats, Diag. #    214  SIarea    vol(   0 ): 3.580E+14  Parms: SM      M1      
 Compute Stats, Diag. #    217  SIheff    vol(   0 ): 3.580E+14  Parms: SM      M1      
 Compute Stats, Diag. #    219  SIhsnow   vol(   0 ): 3.580E+14  Parms: SM      M1      
 Compute Stats, Diag. #     83  sIceLoad  vol(   0 ): 3.580E+14  Parms: SM      U1      
 Compute Stats, Diag. #    223  SIuice    vol(   0 ): 3.513E+14  Parms: UU      M1      
 Compute Stats, Diag. #    224  SIvice    vol(   0 ): 3.508E+14  Parms: VV      M1      
 Compute Stats, Diag. #    225  SItaux    vol(   0 ): 3.513E+14  Parms: UU      U1      
 Compute Stats, Diag. #    226  SItauy    vol(   0 ): 3.508E+14  Parms: VV      U1      
 cg2d: Sum(rhs),rhsMax =   8.53914208801486E+00  2.93400594007387E-01
 Compute Stats, Diag. #    214  SIarea    vol(   0 ): 3.580E+14  Parms: SM      M1      
 Compute Stats, Diag. #    217  SIheff    vol(   0 ): 3.580E+14  Parms: SM      M1      
 Compute Stats, Diag. #    219  SIhsnow   vol(   0 ): 3.580E+14  Parms: SM      M1      
 Compute Stats, Diag. #     83  sIceLoad  vol(   0 ): 3.580E+14  Parms: SM      U1      
 Compute Stats, Diag. #    223  SIuice    vol(   0 ): 3.513E+14  Parms: UU      M1      
 Compute Stats, Diag. #    224  SIvice    vol(   0 ): 3.508E+14  Parms: VV      M1      
 Compute Stats, Diag. #    225  SItaux    vol(   0 ): 3.513E+14  Parms: UU      U1      
 Compute Stats, Diag. #    226  SItauy    vol(   0 ): 3.508E+14  Parms: VV      U1      
 cg2d: Sum(rhs),rhsMax =   8.39946068092055E+00  2.93389975485429E-01
 Compute Stats, Diag. #    214  SIarea    vol(   0 ): 3.580E+14  Parms: SM      M1      
 Compute Stats, Diag. #    217  SIheff    vol(   0 ): 3.580E+14  Parms: SM      M1      
 Compute Stats, Diag. #    219  SIhsnow   vol(   0 ): 3.580E+14  Parms: SM      M1      
 Compute Stats, Diag. #     83  sIceLoad  vol(   0 ): 3.580E+14  Parms: SM      U1      
 Compute Stats, Diag. #    223  SIuice    vol(   0 ): 3.513E+14  Parms: UU      M1      
 Compute Stats, Diag. #    224  SIvice    vol(   0 ): 3.508E+14  Parms: VV      M1      
 Compute Stats, Diag. #    225  SItaux    vol(   0 ): 3.513E+14  Parms: UU      U1      
 Compute Stats, Diag. #    226  SItauy    vol(   0 ): 3.508E+14  Parms: VV      U1      
 cg2d: Sum(rhs),rhsMax =   8.25710760957071E+00  2.93378759525667E-01
 Computing Diagnostic #     86  oceQnet      Counter:       4   Parms: SM      U1      
 Computing Diagnostic #     87  oceQsw       Counter:       4   Parms: SM      U1      
 Computing Diagnostic #     84  oceFWflx     Counter:       4   Parms: SM      U1      
 Computing Diagnostic #     85  oceSflux     Counter:       4   Parms: SM      U1      
 Computing Diagnostic #     80  oceTAUX      Counter:       4   Parms: UU      U1      
           Vector  Mate for  oceTAUX      Diagnostic #     81  oceTAUY  exists 
 Computing Diagnostic #     81  oceTAUY      Counter:       4   Parms: VV      U1      
           Vector  Mate for  oceTAUY      Diagnostic #     80  oceTAUX  exists 
 Computing Diagnostic #     26  THETA        Counter:       4   Parms: SMR     MR      
 Computing Diagnostic #     27  SALT         Counter:       4   Parms: SMR     MR      
 Computing Diagnostic #     30  UVEL         Counter:       4   Parms: UUR     MR      
           Vector  Mate for  UVEL         Diagnostic #     31  VVEL     exists 
 Computing Diagnostic #     31  VVEL         Counter:       4   Parms: VVR     MR      
           Vector  Mate for  VVEL         Diagnostic #     30  UVEL     exists 
 Computing Diagnostic #    214  SIarea       Counter:       4   Parms: SM      M1      
 Computing Diagnostic #    217  SIheff       Counter:       4   Parms: SM      M1      
 Computing Diagnostic #    219  SIhsnow      Counter:       4   Parms: SM      M1      
 Computing Diagnostic #     83  sIceLoad     Counter:       4   Parms: SM      U1      
 Computing Diagnostic #    223  SIuice       Counter:       4   Parms: UU      M1      
           Vector  Mate for  SIuice       Diagnostic #    224  SIvice   exists 
 Computing Diagnostic #    224  SIvice       Counter:       4   Parms: VV      M1      
           Vector  Mate for  SIvice       Diagnostic #    223  SIuice   exists 
 Computing Diagnostic #    225  SItaux       Counter:       4   Parms: UU      U1      
           Vector  Mate for  SItaux       Diagnostic #    226  SItauy   exists 
 Computing Diagnostic #    226  SItauy       Counter:       4   Parms: VV      U1      
           Vector  Mate for  SItauy       Diagnostic #    225  SItaux   exists 
 Computing Diagnostic #    285  SIareaN      Counter:       4   Parms: SM      MX      
 Computing Diagnostic #    284  SIheffN      Counter:       4   Parms: SM      MX      
 Computing Diagnostic #    286  SIhsnowN     Counter:       4   Parms: SM      MX      
 Compute Stats, Diag. #    214  SIarea    vol(   0 ): 3.580E+14  Parms: SM      M1      
 Compute Stats, Diag. #    217  SIheff    vol(   0 ): 3.580E+14  Parms: SM      M1      
 Compute Stats, Diag. #    219  SIhsnow   vol(   0 ): 3.580E+14  Parms: SM      M1      
 Compute Stats, Diag. #     83  sIceLoad  vol(   0 ): 3.580E+14  Parms: SM      U1      
 Compute Stats, Diag. #    223  SIuice    vol(   0 ): 3.513E+14  Parms: UU      M1      
 Compute Stats, Diag. #    224  SIvice    vol(   0 ): 3.508E+14  Parms: VV      M1      
 Compute Stats, Diag. #    225  SItaux    vol(   0 ): 3.513E+14  Parms: UU      U1      
 Compute Stats, Diag. #    226  SItauy    vol(   0 ): 3.508E+14  Parms: VV      U1      
 cg2d: Sum(rhs),rhsMax =   8.11576451197467E+00  2.93365111410607E-01
 Compute Stats, Diag. #    214  SIarea    vol(   0 ): 3.580E+14  Parms: SM      M1      
 Compute Stats, Diag. #    217  SIheff    vol(   0 ): 3.580E+14  Parms: SM      M1      
 Compute Stats, Diag. #    219  SIhsnow   vol(   0 ): 3.580E+14  Parms: SM      M1      
 Compute Stats, Diag. #     83  sIceLoad  vol(   0 ): 3.580E+14  Parms: SM      U1      
 Compute Stats, Diag. #    223  SIuice    vol(   0 ): 3.513E+14  Parms: UU      M1      
 Compute Stats, Diag. #    224  SIvice    vol(   0 ): 3.508E+14  Parms: VV      M1      
 Compute Stats, Diag. #    225  SItaux    vol(   0 ): 3.513E+14  Parms: UU      U1      
 Compute Stats, Diag. #    226  SItauy    vol(   0 ): 3.508E+14  Parms: VV      U1      
 cg2d: Sum(rhs),rhsMax =   7.96340279124948E+00  2.93350428622283E-01
 Compute Stats, Diag. #    214  SIarea    vol(   0 ): 3.580E+14  Parms: SM      M1      
 Compute Stats, Diag. #    217  SIheff    vol(   0 ): 3.580E+14  Parms: SM      M1      
 Compute Stats, Diag. #    219  SIhsnow   vol(   0 ): 3.580E+14  Parms: SM      M1      
 Compute Stats, Diag. #     83  sIceLoad  vol(   0 ): 3.580E+14  Parms: SM      U1      
 Compute Stats, Diag. #    223  SIuice    vol(   0 ): 3.513E+14  Parms: UU      M1      
 Compute Stats, Diag. #    224  SIvice    vol(   0 ): 3.508E+14  Parms: VV      M1      
 Compute Stats, Diag. #    225  SItaux    vol(   0 ): 3.513E+14  Parms: UU      U1      
 Compute Stats, Diag. #    226  SItauy    vol(   0 ): 3.508E+14  Parms: VV      U1      
 cg2d: Sum(rhs),rhsMax =   7.81000736577350E+00  2.93333227431002E-01
 Compute Stats, Diag. #    214  SIarea    vol(   0 ): 3.580E+14  Parms: SM      M1      
 Compute Stats, Diag. #    217  SIheff    vol(   0 ): 3.580E+14  Parms: SM      M1      
 Compute Stats, Diag. #    219  SIhsnow   vol(   0 ): 3.580E+14  Parms: SM      M1      
 Compute Stats, Diag. #     83  sIceLoad  vol(   0 ): 3.580E+14  Parms: SM      U1      
 Compute Stats, Diag. #    223  SIuice    vol(   0 ): 3.513E+14  Parms: UU      M1      
 Compute Stats, Diag. #    224  SIvice    vol(   0 ): 3.508E+14  Parms: VV      M1      
 Compute Stats, Diag. #    225  SItaux    vol(   0 ): 3.513E+14  Parms: UU      U1      
 Compute Stats, Diag. #    226  SItauy    vol(   0 ): 3.508E+14  Parms: VV      U1      
 cg2d: Sum(rhs),rhsMax =   7.65446784133154E+00  2.93314137947629E-01
(PID.TID 0000.0001)      cg2d_init_res =   4.73829756324314E-02
(PID.TID 0000.0001)      cg2d_iters(min,last) =      -1      25
(PID.TID 0000.0001)      cg2d_last_res =   2.32424727874045E-05
(PID.TID 0000.0001) // =======================================================
(PID.TID 0000.0001) // Begin MONITOR dynamic field statistics
(PID.TID 0000.0001) // =======================================================
(PID.TID 0000.0001) %MON time_tsnumber                =                   624
(PID.TID 0000.0001) %MON time_secondsf                =   5.6160000000000E+05
(PID.TID 0000.0001) %MON dynstat_eta_max              =   1.0205366352958E+00
(PID.TID 0000.0001) %MON dynstat_eta_min              =  -1.8547334342383E+00
(PID.TID 0000.0001) %MON dynstat_eta_mean             =  -2.4213526456954E-04
(PID.TID 0000.0001) %MON dynstat_eta_sd               =   6.3292001994346E-01
(PID.TID 0000.0001) %MON dynstat_eta_del2             =   5.4279588213962E-05
(PID.TID 0000.0001) %MON dynstat_uvel_max             =   7.4245587034360E-01
(PID.TID 0000.0001) %MON dynstat_uvel_min             =  -6.0971900391903E-01
(PID.TID 0000.0001) %MON dynstat_uvel_mean            =   1.4399725776857E-03
(PID.TID 0000.0001) %MON dynstat_uvel_sd              =   1.8518445912612E-02
(PID.TID 0000.0001) %MON dynstat_uvel_del2            =   7.5069074522096E-06
(PID.TID 0000.0001) %MON dynstat_vvel_max             =   7.6464308344702E-01
(PID.TID 0000.0001) %MON dynstat_vvel_min             =  -8.8464968696862E-01
(PID.TID 0000.0001) %MON dynstat_vvel_mean            =   1.1832193282152E-03
(PID.TID 0000.0001) %MON dynstat_vvel_sd              =   1.9551275851178E-02
(PID.TID 0000.0001) %MON dynstat_vvel_del2            =   7.5152430256740E-06
(PID.TID 0000.0001) %MON dynstat_wvel_max             =   3.2089728137622E-04
(PID.TID 0000.0001) %MON dynstat_wvel_min             =  -8.2359447342162E-04
(PID.TID 0000.0001) %MON dynstat_wvel_mean            =  -5.2145238597598E-09
(PID.TID 0000.0001) %MON dynstat_wvel_sd              =   1.8313449619455E-05
(PID.TID 0000.0001) %MON dynstat_wvel_del2            =   1.4628746997802E-08
(PID.TID 0000.0001) %MON dynstat_theta_max            =   3.2232420677030E+01
(PID.TID 0000.0001) %MON dynstat_theta_min            =  -2.0405907827770E+00
(PID.TID 0000.0001) %MON dynstat_theta_mean           =   3.5903187302960E+00
(PID.TID 0000.0001) %MON dynstat_theta_sd             =   4.4365548803605E+00
(PID.TID 0000.0001) %MON dynstat_theta_del2           =   9.3291007887414E-05
(PID.TID 0000.0001) %MON dynstat_salt_max             =   4.0711556535893E+01
(PID.TID 0000.0001) %MON dynstat_salt_min             =   8.7084531953233E+00
(PID.TID 0000.0001) %MON dynstat_salt_mean            =   3.4725573518785E+01
(PID.TID 0000.0001) %MON dynstat_salt_sd              =   3.7703700855275E-01
(PID.TID 0000.0001) %MON dynstat_salt_del2            =   3.5923068422647E-05
(PID.TID 0000.0001) %MON dynstat_sst_max              =   3.2232420677030E+01
(PID.TID 0000.0001) %MON dynstat_sst_min              =  -1.8143305284333E+00
(PID.TID 0000.0001) %MON dynstat_sst_mean             =   1.8478141547965E+01
(PID.TID 0000.0001) %MON dynstat_sst_sd               =   1.0229045730560E+01
(PID.TID 0000.0001) %MON dynstat_sst_del2             =   8.0995882546669E-04
(PID.TID 0000.0001) %MON dynstat_sss_max              =   3.9106305261987E+01
(PID.TID 0000.0001) %MON dynstat_sss_min              =   8.7084531953233E+00
(PID.TID 0000.0001) %MON dynstat_sss_mean             =   3.4700244688625E+01
(PID.TID 0000.0001) %MON dynstat_sss_sd               =   1.1652221563853E+00
(PID.TID 0000.0001) %MON dynstat_sss_del2             =   1.1196129799881E-03
(PID.TID 0000.0001) %MON forcing_qnet_max             =   7.2240074904811E+02
(PID.TID 0000.0001) %MON forcing_qnet_min             =  -7.1361014108682E+02
(PID.TID 0000.0001) %MON forcing_qnet_mean            =   4.0806644580830E+01
(PID.TID 0000.0001) %MON forcing_qnet_sd              =   1.6264234407288E+02
(PID.TID 0000.0001) %MON forcing_qnet_del2            =   3.1092849161772E-01
(PID.TID 0000.0001) %MON forcing_qsw_max              =   0.0000000000000E+00
(PID.TID 0000.0001) %MON forcing_qsw_min              =  -1.1079611121152E+02
(PID.TID 0000.0001) %MON forcing_qsw_mean             =  -1.3506127243116E+01
(PID.TID 0000.0001) %MON forcing_qsw_sd               =   2.4594729171172E+01
(PID.TID 0000.0001) %MON forcing_qsw_del2             =   1.8961376798682E-02
(PID.TID 0000.0001) %MON forcing_empmr_max            =   1.1994086671621E-03
(PID.TID 0000.0001) %MON forcing_empmr_min            =  -1.1240036040545E-01
(PID.TID 0000.0001) %MON forcing_empmr_mean           =  -5.6254422933150E-06
(PID.TID 0000.0001) %MON forcing_empmr_sd             =   3.8821424495438E-04
(PID.TID 0000.0001) %MON forcing_empmr_del2           =   6.0277790736932E-06
(PID.TID 0000.0001) %MON forcing_fu_max               =   1.0559267401695E+00
(PID.TID 0000.0001) %MON forcing_fu_min               =  -1.1695545315743E+00
(PID.TID 0000.0001) %MON forcing_fu_mean              =   3.1119764194743E-03
(PID.TID 0000.0001) %MON forcing_fu_sd                =   1.0959805307647E-01
(PID.TID 0000.0001) %MON forcing_fu_del2              =   1.5906186237210E-04
(PID.TID 0000.0001) %MON forcing_fv_max               =   9.6528455615043E-01
(PID.TID 0000.0001) %MON forcing_fv_min               =  -7.6048901677131E-01
(PID.TID 0000.0001) %MON forcing_fv_mean              =  -1.0604134993302E-02
(PID.TID 0000.0001) %MON forcing_fv_sd                =   1.0823906473281E-01
(PID.TID 0000.0001) %MON forcing_fv_del2              =   1.4457690247259E-04
(PID.TID 0000.0001) %MON trAdv_CFL_u_max              =   1.2995625228488E-02
(PID.TID 0000.0001) %MON trAdv_CFL_v_max              =   1.3574151090532E-02
(PID.TID 0000.0001) %MON trAdv_CFL_w_max              =   1.9341024465309E-02
(PID.TID 0000.0001) %MON advcfl_uvel_max              =   7.8114286494981E-03
(PID.TID 0000.0001) %MON advcfl_vvel_max              =   1.3573106098342E-02
(PID.TID 0000.0001) %MON advcfl_wvel_max              =   1.9661870624859E-02
(PID.TID 0000.0001) %MON advcfl_W_hf_max              =   1.8188938142070E-02
(PID.TID 0000.0001) %MON pe_b_mean                    =   5.2693377514863E-04
(PID.TID 0000.0001) %MON ke_max                       =   3.9111207657652E-01
(PID.TID 0000.0001) %MON ke_mean                      =   3.5135523458761E-04
(PID.TID 0000.0001) %MON ke_vol                       =   1.3349977884900E+18
(PID.TID 0000.0001) %MON vort_r_min                   =  -1.4029900962864E-05
(PID.TID 0000.0001) %MON vort_r_max                   =   2.1151924804171E-05
(PID.TID 0000.0001) %MON vort_a_mean                  =  -1.9727864647440E-05
(PID.TID 0000.0001) %MON vort_a_sd                    =   7.4543021485543E-05
(PID.TID 0000.0001) %MON vort_p_mean                  =  -2.1760534904501E-05
(PID.TID 0000.0001) %MON vort_p_sd                    =   9.7246046877934E-05
(PID.TID 0000.0001) %MON surfExpan_theta_mean         =  -1.1012555993317E-07
(PID.TID 0000.0001) %MON surfExpan_salt_mean          =   3.5073819709376E-08
(PID.TID 0000.0001) // =======================================================
(PID.TID 0000.0001) // End MONITOR dynamic field statistics
(PID.TID 0000.0001) // =======================================================
(PID.TID 0000.0001) // =======================================================
(PID.TID 0000.0001) // Begin MONITOR SEAICE statistics
(PID.TID 0000.0001) // =======================================================
(PID.TID 0000.0001) %MON seaice_tsnumber              =                   624
(PID.TID 0000.0001) %MON seaice_time_sec              =   5.6160000000000E+05
(PID.TID 0000.0001) %MON seaice_uice_max              =   4.0000000000000E-01
(PID.TID 0000.0001) %MON seaice_uice_min              =  -4.0000000000000E-01
(PID.TID 0000.0001) %MON seaice_uice_mean             =  -8.3054598624025E-03
(PID.TID 0000.0001) %MON seaice_uice_sd               =   1.9802383574176E-01
(PID.TID 0000.0001) %MON seaice_uice_del2             =   2.2931571122150E-04
(PID.TID 0000.0001) %MON seaice_vice_max              =   4.0000000000000E-01
(PID.TID 0000.0001) %MON seaice_vice_min              =  -4.0000000000000E-01
(PID.TID 0000.0001) %MON seaice_vice_mean             =  -2.1960776359499E-02
(PID.TID 0000.0001) %MON seaice_vice_sd               =   2.1302038025672E-01
(PID.TID 0000.0001) %MON seaice_vice_del2             =   2.3932563818061E-04
(PID.TID 0000.0001) %MON seaice_area_max              =   1.0000000000000E+00
(PID.TID 0000.0001) %MON seaice_area_min              =   0.0000000000000E+00
(PID.TID 0000.0001) %MON seaice_area_mean             =   6.6356268607844E-02
(PID.TID 0000.0001) %MON seaice_area_sd               =   2.3071626262455E-01
(PID.TID 0000.0001) %MON seaice_area_del2             =   4.0017897136404E-04
(PID.TID 0000.0001) %MON seaice_heff_max              =   2.5035098587163E+01
(PID.TID 0000.0001) %MON seaice_heff_min              =   0.0000000000000E+00
(PID.TID 0000.0001) %MON seaice_heff_mean             =   2.1318065658412E-01
(PID.TID 0000.0001) %MON seaice_heff_sd               =   1.0671178665299E+00
(PID.TID 0000.0001) %MON seaice_heff_del2             =   3.8535021409070E-03
(PID.TID 0000.0001) %MON seaice_hsnow_max             =   8.2689897230593E+00
(PID.TID 0000.0001) %MON seaice_hsnow_min             =   0.0000000000000E+00
(PID.TID 0000.0001) %MON seaice_hsnow_mean            =   2.4126340035816E-02
(PID.TID 0000.0001) %MON seaice_hsnow_sd              =   1.5639021360783E-01
(PID.TID 0000.0001) %MON seaice_hsnow_del2            =   1.2414717528511E-03
(PID.TID 0000.0001) // =======================================================
(PID.TID 0000.0001) // End MONITOR SEAICE statistics
(PID.TID 0000.0001) // =======================================================
 Computing Diagnostic #     86  oceQnet      Counter:       4   Parms: SM      U1      
 Computing Diagnostic #     87  oceQsw       Counter:       4   Parms: SM      U1      
 Computing Diagnostic #     84  oceFWflx     Counter:       4   Parms: SM      U1      
 Computing Diagnostic #     85  oceSflux     Counter:       4   Parms: SM      U1      
 Computing Diagnostic #     80  oceTAUX      Counter:       4   Parms: UU      U1      
           Vector  Mate for  oceTAUX      Diagnostic #     81  oceTAUY  exists 
 Computing Diagnostic #     81  oceTAUY      Counter:       4   Parms: VV      U1      
           Vector  Mate for  oceTAUY      Diagnostic #     80  oceTAUX  exists 
 Computing Diagnostic #     26  THETA        Counter:       4   Parms: SMR     MR      
 Computing Diagnostic #     27  SALT         Counter:       4   Parms: SMR     MR      
 Computing Diagnostic #     30  UVEL         Counter:       4   Parms: UUR     MR      
           Vector  Mate for  UVEL         Diagnostic #     31  VVEL     exists 
 Computing Diagnostic #     31  VVEL         Counter:       4   Parms: VVR     MR      
           Vector  Mate for  VVEL         Diagnostic #     30  UVEL     exists 
 Computing Diagnostic #    214  SIarea       Counter:       4   Parms: SM      M1      
 Computing Diagnostic #    217  SIheff       Counter:       4   Parms: SM      M1      
 Computing Diagnostic #    219  SIhsnow      Counter:       4   Parms: SM      M1      
 Computing Diagnostic #     83  sIceLoad     Counter:       4   Parms: SM      U1      
 Computing Diagnostic #    223  SIuice       Counter:       4   Parms: UU      M1      
           Vector  Mate for  SIuice       Diagnostic #    224  SIvice   exists 
 Computing Diagnostic #    224  SIvice       Counter:       4   Parms: VV      M1      
           Vector  Mate for  SIvice       Diagnostic #    223  SIuice   exists 
 Computing Diagnostic #    225  SItaux       Counter:       4   Parms: UU      U1      
           Vector  Mate for  SItaux       Diagnostic #    226  SItauy   exists 
 Computing Diagnostic #    226  SItauy       Counter:       4   Parms: VV      U1      
           Vector  Mate for  SItauy       Diagnostic #    225  SItaux   exists 
 Computing Diagnostic #    285  SIareaN      Counter:       4   Parms: SM      MX      
 Computing Diagnostic #    284  SIheffN      Counter:       4   Parms: SM      MX      
 Computing Diagnostic #    286  SIhsnowN     Counter:       4   Parms: SM      MX      
 Compute Stats, Diag. #    214  SIarea    vol(   0 ): 3.580E+14  Parms: SM      M1      
 Compute Stats, Diag. #    217  SIheff    vol(   0 ): 3.580E+14  Parms: SM      M1      
 Compute Stats, Diag. #    219  SIhsnow   vol(   0 ): 3.580E+14  Parms: SM      M1      
 Compute Stats, Diag. #     83  sIceLoad  vol(   0 ): 3.580E+14  Parms: SM      U1      
 Compute Stats, Diag. #    223  SIuice    vol(   0 ): 3.513E+14  Parms: UU      M1      
 Compute Stats, Diag. #    224  SIvice    vol(   0 ): 3.508E+14  Parms: VV      M1      
 Compute Stats, Diag. #    225  SItaux    vol(   0 ): 3.513E+14  Parms: UU      U1      
 Compute Stats, Diag. #    226  SItauy    vol(   0 ): 3.508E+14  Parms: VV      U1      
 cg2d: Sum(rhs),rhsMax =   7.50152244056299E+00  2.93292179029629E-01
 Compute Stats, Diag. #    214  SIarea    vol(   0 ): 3.580E+14  Parms: SM      M1      
 Compute Stats, Diag. #    217  SIheff    vol(   0 ): 3.580E+14  Parms: SM      M1      
 Compute Stats, Diag. #    219  SIhsnow   vol(   0 ): 3.580E+14  Parms: SM      M1      
 Compute Stats, Diag. #     83  sIceLoad  vol(   0 ): 3.580E+14  Parms: SM      U1      
 Compute Stats, Diag. #    223  SIuice    vol(   0 ): 3.513E+14  Parms: UU      M1      
 Compute Stats, Diag. #    224  SIvice    vol(   0 ): 3.508E+14  Parms: VV      M1      
 Compute Stats, Diag. #    225  SItaux    vol(   0 ): 3.513E+14  Parms: UU      U1      
 Compute Stats, Diag. #    226  SItauy    vol(   0 ): 3.508E+14  Parms: VV      U1      
 cg2d: Sum(rhs),rhsMax =   7.34771104516058E+00  2.93267774687778E-01
 Compute Stats, Diag. #    214  SIarea    vol(   0 ): 3.580E+14  Parms: SM      M1      
 Compute Stats, Diag. #    217  SIheff    vol(   0 ): 3.580E+14  Parms: SM      M1      
 Compute Stats, Diag. #    219  SIhsnow   vol(   0 ): 3.580E+14  Parms: SM      M1      
 Compute Stats, Diag. #     83  sIceLoad  vol(   0 ): 3.580E+14  Parms: SM      U1      
 Compute Stats, Diag. #    223  SIuice    vol(   0 ): 3.513E+14  Parms: UU      M1      
 Compute Stats, Diag. #    224  SIvice    vol(   0 ): 3.508E+14  Parms: VV      M1      
 Compute Stats, Diag. #    225  SItaux    vol(   0 ): 3.513E+14  Parms: UU      U1      
 Compute Stats, Diag. #    226  SItauy    vol(   0 ): 3.508E+14  Parms: VV      U1      
 cg2d: Sum(rhs),rhsMax =   7.20144239828082E+00  2.93239940966154E-01
 Compute Stats, Diag. #    214  SIarea    vol(   0 ): 3.580E+14  Parms: SM      M1      
 Compute Stats, Diag. #    217  SIheff    vol(   0 ): 3.580E+14  Parms: SM      M1      
 Compute Stats, Diag. #    219  SIhsnow   vol(   0 ): 3.580E+14  Parms: SM      M1      
 Compute Stats, Diag. #     83  sIceLoad  vol(   0 ): 3.580E+14  Parms: SM      U1      
 Compute Stats, Diag. #    223  SIuice    vol(   0 ): 3.513E+14  Parms: UU      M1      
 Compute Stats, Diag. #    224  SIvice    vol(   0 ): 3.508E+14  Parms: VV      M1      
 Compute Stats, Diag. #    225  SItaux    vol(   0 ): 3.513E+14  Parms: UU      U1      
 Compute Stats, Diag. #    226  SItauy    vol(   0 ): 3.508E+14  Parms: VV      U1      
 cg2d: Sum(rhs),rhsMax =   7.05345807833366E+00  2.93209801828729E-01
 Computing Diagnostic #     86  oceQnet      Counter:       4   Parms: SM      U1      
 Computing Diagnostic #     87  oceQsw       Counter:       4   Parms: SM      U1      
 Computing Diagnostic #     84  oceFWflx     Counter:       4   Parms: SM      U1      
 Computing Diagnostic #     85  oceSflux     Counter:       4   Parms: SM      U1      
 Computing Diagnostic #     80  oceTAUX      Counter:       4   Parms: UU      U1      
           Vector  Mate for  oceTAUX      Diagnostic #     81  oceTAUY  exists 
 Computing Diagnostic #     81  oceTAUY      Counter:       4   Parms: VV      U1      
           Vector  Mate for  oceTAUY      Diagnostic #     80  oceTAUX  exists 
 Computing Diagnostic #     26  THETA        Counter:       4   Parms: SMR     MR      
 Computing Diagnostic #     27  SALT         Counter:       4   Parms: SMR     MR      
 Computing Diagnostic #     30  UVEL         Counter:       4   Parms: UUR     MR      
           Vector  Mate for  UVEL         Diagnostic #     31  VVEL     exists 
 Computing Diagnostic #     31  VVEL         Counter:       4   Parms: VVR     MR      
           Vector  Mate for  VVEL         Diagnostic #     30  UVEL     exists 
 Computing Diagnostic #    214  SIarea       Counter:       4   Parms: SM      M1      
 Computing Diagnostic #    217  SIheff       Counter:       4   Parms: SM      M1      
 Computing Diagnostic #    219  SIhsnow      Counter:       4   Parms: SM      M1      
 Computing Diagnostic #     83  sIceLoad     Counter:       4   Parms: SM      U1      
 Computing Diagnostic #    223  SIuice       Counter:       4   Parms: UU      M1      
           Vector  Mate for  SIuice       Diagnostic #    224  SIvice   exists 
 Computing Diagnostic #    224  SIvice       Counter:       4   Parms: VV      M1      
           Vector  Mate for  SIvice       Diagnostic #    223  SIuice   exists 
 Computing Diagnostic #    225  SItaux       Counter:       4   Parms: UU      U1      
           Vector  Mate for  SItaux       Diagnostic #    226  SItauy   exists 
 Computing Diagnostic #    226  SItauy       Counter:       4   Parms: VV      U1      
           Vector  Mate for  SItauy       Diagnostic #    225  SItaux   exists 
 Computing Diagnostic #    285  SIareaN      Counter:       4   Parms: SM      MX      
 Computing Diagnostic #    284  SIheffN      Counter:       4   Parms: SM      MX      
 Computing Diagnostic #    286  SIhsnowN     Counter:       4   Parms: SM      MX      
 Compute Stats, Diag. #    214  SIarea    vol(   0 ): 3.580E+14  Parms: SM      M1      
 Compute Stats, Diag. #    217  SIheff    vol(   0 ): 3.580E+14  Parms: SM      M1      
 Compute Stats, Diag. #    219  SIhsnow   vol(   0 ): 3.580E+14  Parms: SM      M1      
 Compute Stats, Diag. #     83  sIceLoad  vol(   0 ): 3.580E+14  Parms: SM      U1      
 Compute Stats, Diag. #    223  SIuice    vol(   0 ): 3.513E+14  Parms: UU      M1      
 Compute Stats, Diag. #    224  SIvice    vol(   0 ): 3.508E+14  Parms: VV      M1      
 Compute Stats, Diag. #    225  SItaux    vol(   0 ): 3.513E+14  Parms: UU      U1      
 Compute Stats, Diag. #    226  SItauy    vol(   0 ): 3.508E+14  Parms: VV      U1      
 cg2d: Sum(rhs),rhsMax =   6.89763662496081E+00  2.93176346247964E-01
 Compute Stats, Diag. #    214  SIarea    vol(   0 ): 3.580E+14  Parms: SM      M1      
 Compute Stats, Diag. #    217  SIheff    vol(   0 ): 3.580E+14  Parms: SM      M1      
 Compute Stats, Diag. #    219  SIhsnow   vol(   0 ): 3.580E+14  Parms: SM      M1      
 Compute Stats, Diag. #     83  sIceLoad  vol(   0 ): 3.580E+14  Parms: SM      U1      
 Compute Stats, Diag. #    223  SIuice    vol(   0 ): 3.513E+14  Parms: UU      M1      
 Compute Stats, Diag. #    224  SIvice    vol(   0 ): 3.508E+14  Parms: VV      M1      
 Compute Stats, Diag. #    225  SItaux    vol(   0 ): 3.513E+14  Parms: UU      U1      
 Compute Stats, Diag. #    226  SItauy    vol(   0 ): 3.508E+14  Parms: VV      U1      
 cg2d: Sum(rhs),rhsMax =   6.73816654848758E+00  2.93140492060981E-01
 Compute Stats, Diag. #    214  SIarea    vol(   0 ): 3.580E+14  Parms: SM      M1      
 Compute Stats, Diag. #    217  SIheff    vol(   0 ): 3.580E+14  Parms: SM      M1      
 Compute Stats, Diag. #    219  SIhsnow   vol(   0 ): 3.580E+14  Parms: SM      M1      
 Compute Stats, Diag. #     83  sIceLoad  vol(   0 ): 3.580E+14  Parms: SM      U1      
 Compute Stats, Diag. #    223  SIuice    vol(   0 ): 3.513E+14  Parms: UU      M1      
 Compute Stats, Diag. #    224  SIvice    vol(   0 ): 3.508E+14  Parms: VV      M1      
 Compute Stats, Diag. #    225  SItaux    vol(   0 ): 3.513E+14  Parms: UU      U1      
 Compute Stats, Diag. #    226  SItauy    vol(   0 ): 3.508E+14  Parms: VV      U1      
 cg2d: Sum(rhs),rhsMax =   6.57897981843759E+00  2.93101171036978E-01
 Compute Stats, Diag. #    214  SIarea    vol(   0 ): 3.580E+14  Parms: SM      M1      
 Compute Stats, Diag. #    217  SIheff    vol(   0 ): 3.580E+14  Parms: SM      M1      
 Compute Stats, Diag. #    219  SIhsnow   vol(   0 ): 3.580E+14  Parms: SM      M1      
 Compute Stats, Diag. #     83  sIceLoad  vol(   0 ): 3.580E+14  Parms: SM      U1      
 Compute Stats, Diag. #    223  SIuice    vol(   0 ): 3.513E+14  Parms: UU      M1      
 Compute Stats, Diag. #    224  SIvice    vol(   0 ): 3.508E+14  Parms: VV      M1      
 Compute Stats, Diag. #    225  SItaux    vol(   0 ): 3.513E+14  Parms: UU      U1      
 Compute Stats, Diag. #    226  SItauy    vol(   0 ): 3.508E+14  Parms: VV      U1      
 cg2d: Sum(rhs),rhsMax =   6.41480851726571E+00  2.93059781401190E-01
(PID.TID 0000.0001)      cg2d_init_res =   4.57999948904304E-02
(PID.TID 0000.0001)      cg2d_iters(min,last) =      -1      25
(PID.TID 0000.0001)      cg2d_last_res =   2.18303291353843E-05
(PID.TID 0000.0001) // =======================================================
(PID.TID 0000.0001) // Begin MONITOR dynamic field statistics
(PID.TID 0000.0001) // =======================================================
(PID.TID 0000.0001) %MON time_tsnumber                =                   632
(PID.TID 0000.0001) %MON time_secondsf                =   5.6880000000000E+05
(PID.TID 0000.0001) %MON dynstat_eta_max              =   1.0199299230873E+00
(PID.TID 0000.0001) %MON dynstat_eta_min              =  -1.8542335418515E+00
(PID.TID 0000.0001) %MON dynstat_eta_mean             =  -2.0292088094023E-04
(PID.TID 0000.0001) %MON dynstat_eta_sd               =   6.3291146222351E-01
(PID.TID 0000.0001) %MON dynstat_eta_del2             =   5.4154326580706E-05
(PID.TID 0000.0001) %MON dynstat_uvel_max             =   7.4018170441355E-01
(PID.TID 0000.0001) %MON dynstat_uvel_min             =  -6.1327252153311E-01
(PID.TID 0000.0001) %MON dynstat_uvel_mean            =   1.4301939030222E-03
(PID.TID 0000.0001) %MON dynstat_uvel_sd              =   1.8526426906793E-02
(PID.TID 0000.0001) %MON dynstat_uvel_del2            =   7.4957802024077E-06
(PID.TID 0000.0001) %MON dynstat_vvel_max             =   7.3612616492495E-01
(PID.TID 0000.0001) %MON dynstat_vvel_min             =  -8.8722720314432E-01
(PID.TID 0000.0001) %MON dynstat_vvel_mean            =   1.1731768459420E-03
(PID.TID 0000.0001) %MON dynstat_vvel_sd              =   1.9521367641543E-02
(PID.TID 0000.0001) %MON dynstat_vvel_del2            =   7.4989290028154E-06
(PID.TID 0000.0001) %MON dynstat_wvel_max             =   3.2585301679883E-04
(PID.TID 0000.0001) %MON dynstat_wvel_min             =  -8.2693188889091E-04
(PID.TID 0000.0001) %MON dynstat_wvel_mean            =  -4.7312086952574E-09
(PID.TID 0000.0001) %MON dynstat_wvel_sd              =   1.8540121217473E-05
(PID.TID 0000.0001) %MON dynstat_wvel_del2            =   1.4621565891146E-08
(PID.TID 0000.0001) %MON dynstat_theta_max            =   3.2232822428876E+01
(PID.TID 0000.0001) %MON dynstat_theta_min            =  -2.0401715912303E+00
(PID.TID 0000.0001) %MON dynstat_theta_mean           =   3.5903027140402E+00
(PID.TID 0000.0001) %MON dynstat_theta_sd             =   4.4365089574630E+00
(PID.TID 0000.0001) %MON dynstat_theta_del2           =   9.3209914320714E-05
(PID.TID 0000.0001) %MON dynstat_salt_max             =   4.0711556609699E+01
(PID.TID 0000.0001) %MON dynstat_salt_min             =   8.6710258485927E+00
(PID.TID 0000.0001) %MON dynstat_salt_mean            =   3.4725573184303E+01
(PID.TID 0000.0001) %MON dynstat_salt_sd              =   3.7703894055166E-01
(PID.TID 0000.0001) %MON dynstat_salt_del2            =   3.6276832203519E-05
(PID.TID 0000.0001) %MON dynstat_sst_max              =   3.2232822428876E+01
(PID.TID 0000.0001) %MON dynstat_sst_min              =  -1.8155079982208E+00
(PID.TID 0000.0001) %MON dynstat_sst_mean             =   1.8474821564695E+01
(PID.TID 0000.0001) %MON dynstat_sst_sd               =   1.0229507409458E+01
(PID.TID 0000.0001) %MON dynstat_sst_del2             =   8.0725368501673E-04
(PID.TID 0000.0001) %MON dynstat_sss_max              =   3.9106030874817E+01
(PID.TID 0000.0001) %MON dynstat_sss_min              =   8.6710258485927E+00
(PID.TID 0000.0001) %MON dynstat_sss_mean             =   3.4700232972979E+01
(PID.TID 0000.0001) %MON dynstat_sss_sd               =   1.1656867703431E+00
(PID.TID 0000.0001) %MON dynstat_sss_del2             =   1.1373797131042E-03
(PID.TID 0000.0001) %MON forcing_qnet_max             =   7.8641004336927E+02
(PID.TID 0000.0001) %MON forcing_qnet_min             =  -7.5505548095703E+02
(PID.TID 0000.0001) %MON forcing_qnet_mean            =   2.8631343925950E+01
(PID.TID 0000.0001) %MON forcing_qnet_sd              =   1.6584436731392E+02
(PID.TID 0000.0001) %MON forcing_qnet_del2            =   3.1533698014408E-01
(PID.TID 0000.0001) %MON forcing_qsw_max              =   0.0000000000000E+00
(PID.TID 0000.0001) %MON forcing_qsw_min              =  -9.9722377291739E+01
(PID.TID 0000.0001) %MON forcing_qsw_mean             =  -1.4408223883500E+01
(PID.TID 0000.0001) %MON forcing_qsw_sd               =   2.4320185730365E+01
(PID.TID 0000.0001) %MON forcing_qsw_del2             =   2.0502577627079E-02
(PID.TID 0000.0001) %MON forcing_empmr_max            =   1.2010362697765E-03
(PID.TID 0000.0001) %MON forcing_empmr_min            =  -7.6091930270195E-02
(PID.TID 0000.0001) %MON forcing_empmr_mean           =  -5.9376302213887E-06
(PID.TID 0000.0001) %MON forcing_empmr_sd             =   3.2304566788806E-04
(PID.TID 0000.0001) %MON forcing_empmr_del2           =   4.7418507689200E-06
(PID.TID 0000.0001) %MON forcing_fu_max               =   1.0147311687469E+00
(PID.TID 0000.0001) %MON forcing_fu_min               =  -1.1545214653015E+00
(PID.TID 0000.0001) %MON forcing_fu_mean              =   2.7210134882132E-03
(PID.TID 0000.0001) %MON forcing_fu_sd                =   1.0704339417305E-01
(PID.TID 0000.0001) %MON forcing_fu_del2              =   1.5521129007193E-04
(PID.TID 0000.0001) %MON forcing_fv_max               =   9.7283113002776E-01
(PID.TID 0000.0001) %MON forcing_fv_min               =  -7.1785753965377E-01
(PID.TID 0000.0001) %MON forcing_fv_mean              =  -1.0135374362595E-02
(PID.TID 0000.0001) %MON forcing_fv_sd                =   1.0867390848158E-01
(PID.TID 0000.0001) %MON forcing_fv_del2              =   1.4519237803974E-04
(PID.TID 0000.0001) %MON trAdv_CFL_u_max              =   1.3580492927874E-02
(PID.TID 0000.0001) %MON trAdv_CFL_v_max              =   1.3144698871612E-02
(PID.TID 0000.0001) %MON trAdv_CFL_w_max              =   1.9369467258085E-02
(PID.TID 0000.0001) %MON advcfl_uvel_max              =   7.1901185409643E-03
(PID.TID 0000.0001) %MON advcfl_vvel_max              =   1.3066905010439E-02
(PID.TID 0000.0001) %MON advcfl_wvel_max              =   1.7875736296460E-02
(PID.TID 0000.0001) %MON advcfl_W_hf_max              =   1.8285253283934E-02
(PID.TID 0000.0001) %MON pe_b_mean                    =   5.2691949743012E-04
(PID.TID 0000.0001) %MON ke_max                       =   3.9333476184390E-01
(PID.TID 0000.0001) %MON ke_mean                      =   3.5090925859606E-04
(PID.TID 0000.0001) %MON ke_vol                       =   1.3349978024315E+18
(PID.TID 0000.0001) %MON vort_r_min                   =  -1.3434793653913E-05
(PID.TID 0000.0001) %MON vort_r_max                   =   2.0293248575990E-05
(PID.TID 0000.0001) %MON vort_a_mean                  =  -1.9727864647440E-05
(PID.TID 0000.0001) %MON vort_a_sd                    =   7.4543016565055E-05
(PID.TID 0000.0001) %MON vort_p_mean                  =  -2.1760534627943E-05
(PID.TID 0000.0001) %MON vort_p_sd                    =   9.7245939297333E-05
(PID.TID 0000.0001) %MON surfExpan_theta_mean         =  -1.1554243799684E-07
(PID.TID 0000.0001) %MON surfExpan_salt_mean          =   3.0498369564214E-08
(PID.TID 0000.0001) // =======================================================
(PID.TID 0000.0001) // End MONITOR dynamic field statistics
(PID.TID 0000.0001) // =======================================================
(PID.TID 0000.0001) // =======================================================
(PID.TID 0000.0001) // Begin MONITOR SEAICE statistics
(PID.TID 0000.0001) // =======================================================
(PID.TID 0000.0001) %MON seaice_tsnumber              =                   632
(PID.TID 0000.0001) %MON seaice_time_sec              =   5.6880000000000E+05
(PID.TID 0000.0001) %MON seaice_uice_max              =   4.0000000000000E-01
(PID.TID 0000.0001) %MON seaice_uice_min              =  -4.0000000000000E-01
(PID.TID 0000.0001) %MON seaice_uice_mean             =  -8.3054598624025E-03
(PID.TID 0000.0001) %MON seaice_uice_sd               =   1.9802383574176E-01
(PID.TID 0000.0001) %MON seaice_uice_del2             =   2.2931571122150E-04
(PID.TID 0000.0001) %MON seaice_vice_max              =   4.0000000000000E-01
(PID.TID 0000.0001) %MON seaice_vice_min              =  -4.0000000000000E-01
(PID.TID 0000.0001) %MON seaice_vice_mean             =  -2.1960776359499E-02
(PID.TID 0000.0001) %MON seaice_vice_sd               =   2.1302038025672E-01
(PID.TID 0000.0001) %MON seaice_vice_del2             =   2.3932563818061E-04
(PID.TID 0000.0001) %MON seaice_area_max              =   1.0000000000000E+00
(PID.TID 0000.0001) %MON seaice_area_min              =   0.0000000000000E+00
(PID.TID 0000.0001) %MON seaice_area_mean             =   6.6325659326395E-02
(PID.TID 0000.0001) %MON seaice_area_sd               =   2.3065755304539E-01
(PID.TID 0000.0001) %MON seaice_area_del2             =   3.9966500511893E-04
(PID.TID 0000.0001) %MON seaice_heff_max              =   2.5032387807965E+01
(PID.TID 0000.0001) %MON seaice_heff_min              =   0.0000000000000E+00
(PID.TID 0000.0001) %MON seaice_heff_mean             =   2.1314699613471E-01
(PID.TID 0000.0001) %MON seaice_heff_sd               =   1.0670828722393E+00
(PID.TID 0000.0001) %MON seaice_heff_del2             =   3.8527455168903E-03
(PID.TID 0000.0001) %MON seaice_hsnow_max             =   8.2681005646591E+00
(PID.TID 0000.0001) %MON seaice_hsnow_min             =   0.0000000000000E+00
(PID.TID 0000.0001) %MON seaice_hsnow_mean            =   2.4126198465787E-02
(PID.TID 0000.0001) %MON seaice_hsnow_sd              =   1.5638304496301E-01
(PID.TID 0000.0001) %MON seaice_hsnow_del2            =   1.2413460614860E-03
(PID.TID 0000.0001) // =======================================================
(PID.TID 0000.0001) // End MONITOR SEAICE statistics
(PID.TID 0000.0001) // =======================================================
 Computing Diagnostic #     86  oceQnet      Counter:       4   Parms: SM      U1      
 Computing Diagnostic #     87  oceQsw       Counter:       4   Parms: SM      U1      
 Computing Diagnostic #     84  oceFWflx     Counter:       4   Parms: SM      U1      
 Computing Diagnostic #     85  oceSflux     Counter:       4   Parms: SM      U1      
 Computing Diagnostic #     80  oceTAUX      Counter:       4   Parms: UU      U1      
           Vector  Mate for  oceTAUX      Diagnostic #     81  oceTAUY  exists 
 Computing Diagnostic #     81  oceTAUY      Counter:       4   Parms: VV      U1      
           Vector  Mate for  oceTAUY      Diagnostic #     80  oceTAUX  exists 
 Computing Diagnostic #     26  THETA        Counter:       4   Parms: SMR     MR      
 Computing Diagnostic #     27  SALT         Counter:       4   Parms: SMR     MR      
 Computing Diagnostic #     30  UVEL         Counter:       4   Parms: UUR     MR      
           Vector  Mate for  UVEL         Diagnostic #     31  VVEL     exists 
 Computing Diagnostic #     31  VVEL         Counter:       4   Parms: VVR     MR      
           Vector  Mate for  VVEL         Diagnostic #     30  UVEL     exists 
 Computing Diagnostic #    214  SIarea       Counter:       4   Parms: SM      M1      
 Computing Diagnostic #    217  SIheff       Counter:       4   Parms: SM      M1      
 Computing Diagnostic #    219  SIhsnow      Counter:       4   Parms: SM      M1      
 Computing Diagnostic #     83  sIceLoad     Counter:       4   Parms: SM      U1      
 Computing Diagnostic #    223  SIuice       Counter:       4   Parms: UU      M1      
           Vector  Mate for  SIuice       Diagnostic #    224  SIvice   exists 
 Computing Diagnostic #    224  SIvice       Counter:       4   Parms: VV      M1      
           Vector  Mate for  SIvice       Diagnostic #    223  SIuice   exists 
 Computing Diagnostic #    225  SItaux       Counter:       4   Parms: UU      U1      
           Vector  Mate for  SItaux       Diagnostic #    226  SItauy   exists 
 Computing Diagnostic #    226  SItauy       Counter:       4   Parms: VV      U1      
           Vector  Mate for  SItauy       Diagnostic #    225  SItaux   exists 
 Computing Diagnostic #    285  SIareaN      Counter:       4   Parms: SM      MX      
 Computing Diagnostic #    284  SIheffN      Counter:       4   Parms: SM      MX      
 Computing Diagnostic #    286  SIhsnowN     Counter:       4   Parms: SM      MX      
 Compute Stats, Diag. #    214  SIarea    vol(   0 ): 3.580E+14  Parms: SM      M1      
 Compute Stats, Diag. #    217  SIheff    vol(   0 ): 3.580E+14  Parms: SM      M1      
 Compute Stats, Diag. #    219  SIhsnow   vol(   0 ): 3.580E+14  Parms: SM      M1      
 Compute Stats, Diag. #     83  sIceLoad  vol(   0 ): 3.580E+14  Parms: SM      U1      
 Compute Stats, Diag. #    223  SIuice    vol(   0 ): 3.513E+14  Parms: UU      M1      
 Compute Stats, Diag. #    224  SIvice    vol(   0 ): 3.508E+14  Parms: VV      M1      
 Compute Stats, Diag. #    225  SItaux    vol(   0 ): 3.513E+14  Parms: UU      U1      
 Compute Stats, Diag. #    226  SItauy    vol(   0 ): 3.508E+14  Parms: VV      U1      
 cg2d: Sum(rhs),rhsMax =   6.25045631744392E+00  2.93016126717033E-01
 Compute Stats, Diag. #    214  SIarea    vol(   0 ): 3.580E+14  Parms: SM      M1      
 Compute Stats, Diag. #    217  SIheff    vol(   0 ): 3.580E+14  Parms: SM      M1      
 Compute Stats, Diag. #    219  SIhsnow   vol(   0 ): 3.580E+14  Parms: SM      M1      
 Compute Stats, Diag. #     83  sIceLoad  vol(   0 ): 3.580E+14  Parms: SM      U1      
 Compute Stats, Diag. #    223  SIuice    vol(   0 ): 3.513E+14  Parms: UU      M1      
 Compute Stats, Diag. #    224  SIvice    vol(   0 ): 3.508E+14  Parms: VV      M1      
 Compute Stats, Diag. #    225  SItaux    vol(   0 ): 3.513E+14  Parms: UU      U1      
 Compute Stats, Diag. #    226  SItauy    vol(   0 ): 3.508E+14  Parms: VV      U1      
 cg2d: Sum(rhs),rhsMax =   6.07781668807112E+00  2.92971376618145E-01
 Compute Stats, Diag. #    214  SIarea    vol(   0 ): 3.580E+14  Parms: SM      M1      
 Compute Stats, Diag. #    217  SIheff    vol(   0 ): 3.580E+14  Parms: SM      M1      
 Compute Stats, Diag. #    219  SIhsnow   vol(   0 ): 3.580E+14  Parms: SM      M1      
 Compute Stats, Diag. #     83  sIceLoad  vol(   0 ): 3.580E+14  Parms: SM      U1      
 Compute Stats, Diag. #    223  SIuice    vol(   0 ): 3.513E+14  Parms: UU      M1      
 Compute Stats, Diag. #    224  SIvice    vol(   0 ): 3.508E+14  Parms: VV      M1      
 Compute Stats, Diag. #    225  SItaux    vol(   0 ): 3.513E+14  Parms: UU      U1      
 Compute Stats, Diag. #    226  SItauy    vol(   0 ): 3.508E+14  Parms: VV      U1      
 cg2d: Sum(rhs),rhsMax =   5.90725729237460E+00  2.92925473957320E-01
 Compute Stats, Diag. #    214  SIarea    vol(   0 ): 3.580E+14  Parms: SM      M1      
 Compute Stats, Diag. #    217  SIheff    vol(   0 ): 3.580E+14  Parms: SM      M1      
 Compute Stats, Diag. #    219  SIhsnow   vol(   0 ): 3.580E+14  Parms: SM      M1      
 Compute Stats, Diag. #     83  sIceLoad  vol(   0 ): 3.580E+14  Parms: SM      U1      
 Compute Stats, Diag. #    223  SIuice    vol(   0 ): 3.513E+14  Parms: UU      M1      
 Compute Stats, Diag. #    224  SIvice    vol(   0 ): 3.508E+14  Parms: VV      M1      
 Compute Stats, Diag. #    225  SItaux    vol(   0 ): 3.513E+14  Parms: UU      U1      
 Compute Stats, Diag. #    226  SItauy    vol(   0 ): 3.508E+14  Parms: VV      U1      
 cg2d: Sum(rhs),rhsMax =   5.73328047170264E+00  2.92881810211237E-01
 Computing Diagnostic #     86  oceQnet      Counter:       4   Parms: SM      U1      
 Computing Diagnostic #     87  oceQsw       Counter:       4   Parms: SM      U1      
 Computing Diagnostic #     84  oceFWflx     Counter:       4   Parms: SM      U1      
 Computing Diagnostic #     85  oceSflux     Counter:       4   Parms: SM      U1      
 Computing Diagnostic #     80  oceTAUX      Counter:       4   Parms: UU      U1      
           Vector  Mate for  oceTAUX      Diagnostic #     81  oceTAUY  exists 
 Computing Diagnostic #     81  oceTAUY      Counter:       4   Parms: VV      U1      
           Vector  Mate for  oceTAUY      Diagnostic #     80  oceTAUX  exists 
 Computing Diagnostic #     26  THETA        Counter:       4   Parms: SMR     MR      
 Computing Diagnostic #     27  SALT         Counter:       4   Parms: SMR     MR      
 Computing Diagnostic #     30  UVEL         Counter:       4   Parms: UUR     MR      
           Vector  Mate for  UVEL         Diagnostic #     31  VVEL     exists 
 Computing Diagnostic #     31  VVEL         Counter:       4   Parms: VVR     MR      
           Vector  Mate for  VVEL         Diagnostic #     30  UVEL     exists 
 Computing Diagnostic #    214  SIarea       Counter:       4   Parms: SM      M1      
 Computing Diagnostic #    217  SIheff       Counter:       4   Parms: SM      M1      
 Computing Diagnostic #    219  SIhsnow      Counter:       4   Parms: SM      M1      
 Computing Diagnostic #     83  sIceLoad     Counter:       4   Parms: SM      U1      
 Computing Diagnostic #    223  SIuice       Counter:       4   Parms: UU      M1      
           Vector  Mate for  SIuice       Diagnostic #    224  SIvice   exists 
 Computing Diagnostic #    224  SIvice       Counter:       4   Parms: VV      M1      
           Vector  Mate for  SIvice       Diagnostic #    223  SIuice   exists 
 Computing Diagnostic #    225  SItaux       Counter:       4   Parms: UU      U1      
           Vector  Mate for  SItaux       Diagnostic #    226  SItauy   exists 
 Computing Diagnostic #    226  SItauy       Counter:       4   Parms: VV      U1      
           Vector  Mate for  SItauy       Diagnostic #    225  SItaux   exists 
 Computing Diagnostic #    285  SIareaN      Counter:       4   Parms: SM      MX      
 Computing Diagnostic #    284  SIheffN      Counter:       4   Parms: SM      MX      
 Computing Diagnostic #    286  SIhsnowN     Counter:       4   Parms: SM      MX      
 Compute Stats, Diag. #    214  SIarea    vol(   0 ): 3.580E+14  Parms: SM      M1      
 Compute Stats, Diag. #    217  SIheff    vol(   0 ): 3.580E+14  Parms: SM      M1      
 Compute Stats, Diag. #    219  SIhsnow   vol(   0 ): 3.580E+14  Parms: SM      M1      
 Compute Stats, Diag. #     83  sIceLoad  vol(   0 ): 3.580E+14  Parms: SM      U1      
 Compute Stats, Diag. #    223  SIuice    vol(   0 ): 3.513E+14  Parms: UU      M1      
 Compute Stats, Diag. #    224  SIvice    vol(   0 ): 3.508E+14  Parms: VV      M1      
 Compute Stats, Diag. #    225  SItaux    vol(   0 ): 3.513E+14  Parms: UU      U1      
 Compute Stats, Diag. #    226  SItauy    vol(   0 ): 3.508E+14  Parms: VV      U1      
 cg2d: Sum(rhs),rhsMax =   5.55961773055863E+00  2.92836111573733E-01
 Compute Stats, Diag. #    214  SIarea    vol(   0 ): 3.580E+14  Parms: SM      M1      
 Compute Stats, Diag. #    217  SIheff    vol(   0 ): 3.580E+14  Parms: SM      M1      
 Compute Stats, Diag. #    219  SIhsnow   vol(   0 ): 3.580E+14  Parms: SM      M1      
 Compute Stats, Diag. #     83  sIceLoad  vol(   0 ): 3.580E+14  Parms: SM      U1      
 Compute Stats, Diag. #    223  SIuice    vol(   0 ): 3.513E+14  Parms: UU      M1      
 Compute Stats, Diag. #    224  SIvice    vol(   0 ): 3.508E+14  Parms: VV      M1      
 Compute Stats, Diag. #    225  SItaux    vol(   0 ): 3.513E+14  Parms: UU      U1      
 Compute Stats, Diag. #    226  SItauy    vol(   0 ): 3.508E+14  Parms: VV      U1      
 cg2d: Sum(rhs),rhsMax =   5.37960694531900E+00  2.92793682571737E-01
 Compute Stats, Diag. #    214  SIarea    vol(   0 ): 3.580E+14  Parms: SM      M1      
 Compute Stats, Diag. #    217  SIheff    vol(   0 ): 3.580E+14  Parms: SM      M1      
 Compute Stats, Diag. #    219  SIhsnow   vol(   0 ): 3.580E+14  Parms: SM      M1      
 Compute Stats, Diag. #     83  sIceLoad  vol(   0 ): 3.580E+14  Parms: SM      U1      
 Compute Stats, Diag. #    223  SIuice    vol(   0 ): 3.513E+14  Parms: UU      M1      
 Compute Stats, Diag. #    224  SIvice    vol(   0 ): 3.508E+14  Parms: VV      M1      
 Compute Stats, Diag. #    225  SItaux    vol(   0 ): 3.513E+14  Parms: UU      U1      
 Compute Stats, Diag. #    226  SItauy    vol(   0 ): 3.508E+14  Parms: VV      U1      
 cg2d: Sum(rhs),rhsMax =   5.20686830984285E+00  2.92750655993417E-01
 Compute Stats, Diag. #    214  SIarea    vol(   0 ): 3.580E+14  Parms: SM      M1      
 Compute Stats, Diag. #    217  SIheff    vol(   0 ): 3.580E+14  Parms: SM      M1      
 Compute Stats, Diag. #    219  SIhsnow   vol(   0 ): 3.580E+14  Parms: SM      M1      
 Compute Stats, Diag. #     83  sIceLoad  vol(   0 ): 3.580E+14  Parms: SM      U1      
 Compute Stats, Diag. #    223  SIuice    vol(   0 ): 3.513E+14  Parms: UU      M1      
 Compute Stats, Diag. #    224  SIvice    vol(   0 ): 3.508E+14  Parms: VV      M1      
 Compute Stats, Diag. #    225  SItaux    vol(   0 ): 3.513E+14  Parms: UU      U1      
 Compute Stats, Diag. #    226  SItauy    vol(   0 ): 3.508E+14  Parms: VV      U1      
 cg2d: Sum(rhs),rhsMax =   5.03056345814173E+00  2.92709841770452E-01
(PID.TID 0000.0001)      cg2d_init_res =   4.46563988879732E-02
(PID.TID 0000.0001)      cg2d_iters(min,last) =      -1      25
(PID.TID 0000.0001)      cg2d_last_res =   2.24784004297956E-05
(PID.TID 0000.0001) // =======================================================
(PID.TID 0000.0001) // Begin MONITOR dynamic field statistics
(PID.TID 0000.0001) // =======================================================
(PID.TID 0000.0001) %MON time_tsnumber                =                   640
(PID.TID 0000.0001) %MON time_secondsf                =   5.7600000000000E+05
(PID.TID 0000.0001) %MON dynstat_eta_max              =   1.0209245405775E+00
(PID.TID 0000.0001) %MON dynstat_eta_min              =  -1.8540800343140E+00
(PID.TID 0000.0001) %MON dynstat_eta_mean             =  -1.5913278873478E-04
(PID.TID 0000.0001) %MON dynstat_eta_sd               =   6.3296922605891E-01
(PID.TID 0000.0001) %MON dynstat_eta_del2             =   5.4091648592031E-05
(PID.TID 0000.0001) %MON dynstat_uvel_max             =   7.3733697872024E-01
(PID.TID 0000.0001) %MON dynstat_uvel_min             =  -6.1668667579005E-01
(PID.TID 0000.0001) %MON dynstat_uvel_mean            =   1.4220799310226E-03
(PID.TID 0000.0001) %MON dynstat_uvel_sd              =   1.8536419707128E-02
(PID.TID 0000.0001) %MON dynstat_uvel_del2            =   7.4758259022250E-06
(PID.TID 0000.0001) %MON dynstat_vvel_max             =   7.0986092465893E-01
(PID.TID 0000.0001) %MON dynstat_vvel_min             =  -8.8933579096938E-01
(PID.TID 0000.0001) %MON dynstat_vvel_mean            =   1.1660249665361E-03
(PID.TID 0000.0001) %MON dynstat_vvel_sd              =   1.9503354444056E-02
(PID.TID 0000.0001) %MON dynstat_vvel_del2            =   7.4882827558135E-06
(PID.TID 0000.0001) %MON dynstat_wvel_max             =   3.2714792037322E-04
(PID.TID 0000.0001) %MON dynstat_wvel_min             =  -8.2758775677962E-04
(PID.TID 0000.0001) %MON dynstat_wvel_mean            =  -3.5666705207963E-09
(PID.TID 0000.0001) %MON dynstat_wvel_sd              =   1.8784937070328E-05
(PID.TID 0000.0001) %MON dynstat_wvel_del2            =   1.4591839753519E-08
(PID.TID 0000.0001) %MON dynstat_theta_max            =   3.2211836774998E+01
(PID.TID 0000.0001) %MON dynstat_theta_min            =  -2.0401616846292E+00
(PID.TID 0000.0001) %MON dynstat_theta_mean           =   3.5902919464882E+00
(PID.TID 0000.0001) %MON dynstat_theta_sd             =   4.4364807772156E+00
(PID.TID 0000.0001) %MON dynstat_theta_del2           =   9.3124960169857E-05
(PID.TID 0000.0001) %MON dynstat_salt_max             =   4.0711556744623E+01
(PID.TID 0000.0001) %MON dynstat_salt_min             =   8.5792377694223E+00
(PID.TID 0000.0001) %MON dynstat_salt_mean            =   3.4725572815635E+01
(PID.TID 0000.0001) %MON dynstat_salt_sd              =   3.7704027117472E-01
(PID.TID 0000.0001) %MON dynstat_salt_del2            =   3.6355164782709E-05
(PID.TID 0000.0001) %MON dynstat_sst_max              =   3.2211836774998E+01
(PID.TID 0000.0001) %MON dynstat_sst_min              =  -1.8150676059845E+00
(PID.TID 0000.0001) %MON dynstat_sst_mean             =   1.8473550634167E+01
(PID.TID 0000.0001) %MON dynstat_sst_sd               =   1.0230083997927E+01
(PID.TID 0000.0001) %MON dynstat_sst_del2             =   8.0517300812147E-04
(PID.TID 0000.0001) %MON dynstat_sss_max              =   3.9105743761359E+01
(PID.TID 0000.0001) %MON dynstat_sss_min              =   8.5792377694223E+00
(PID.TID 0000.0001) %MON dynstat_sss_mean             =   3.4700222027629E+01
(PID.TID 0000.0001) %MON dynstat_sss_sd               =   1.1660874742843E+00
(PID.TID 0000.0001) %MON dynstat_sss_del2             =   1.1415321377726E-03
(PID.TID 0000.0001) %MON forcing_qnet_max             =   8.9132052847724E+02
(PID.TID 0000.0001) %MON forcing_qnet_min             =  -6.7848932686586E+02
(PID.TID 0000.0001) %MON forcing_qnet_mean            =   1.8782272478002E+01
(PID.TID 0000.0001) %MON forcing_qnet_sd              =   1.9020114098373E+02
(PID.TID 0000.0001) %MON forcing_qnet_del2            =   3.1676544272574E-01
(PID.TID 0000.0001) %MON forcing_qsw_max              =   0.0000000000000E+00
(PID.TID 0000.0001) %MON forcing_qsw_min              =  -1.0523147824354E+02
(PID.TID 0000.0001) %MON forcing_qsw_mean             =  -1.5589871700926E+01
(PID.TID 0000.0001) %MON forcing_qsw_sd               =   2.7553416282810E+01
(PID.TID 0000.0001) %MON forcing_qsw_del2             =   2.1089526949082E-02
(PID.TID 0000.0001) %MON forcing_empmr_max            =   9.3221029965207E-04
(PID.TID 0000.0001) %MON forcing_empmr_min            =  -7.1345865726471E-02
(PID.TID 0000.0001) %MON forcing_empmr_mean           =  -6.3764678003420E-06
(PID.TID 0000.0001) %MON forcing_empmr_sd             =   3.1603275074336E-04
(PID.TID 0000.0001) %MON forcing_empmr_del2           =   3.6740090392180E-06
(PID.TID 0000.0001) %MON forcing_fu_max               =   9.2250493168831E-01
(PID.TID 0000.0001) %MON forcing_fu_min               =  -1.0703751444817E+00
(PID.TID 0000.0001) %MON forcing_fu_mean              =   2.4953451215972E-03
(PID.TID 0000.0001) %MON forcing_fu_sd                =   1.0437457934118E-01
(PID.TID 0000.0001) %MON forcing_fu_del2              =   1.5112760244672E-04
(PID.TID 0000.0001) %MON forcing_fv_max               =   9.5273169875144E-01
(PID.TID 0000.0001) %MON forcing_fv_min               =  -7.0873363239380E-01
(PID.TID 0000.0001) %MON forcing_fv_mean              =  -9.4161997501893E-03
(PID.TID 0000.0001) %MON forcing_fv_sd                =   1.0891827304106E-01
(PID.TID 0000.0001) %MON forcing_fv_del2              =   1.4615291492426E-04
(PID.TID 0000.0001) %MON trAdv_CFL_u_max              =   1.4255021595845E-02
(PID.TID 0000.0001) %MON trAdv_CFL_v_max              =   1.2743505829271E-02
(PID.TID 0000.0001) %MON trAdv_CFL_w_max              =   1.9458201137921E-02
(PID.TID 0000.0001) %MON advcfl_uvel_max              =   7.1611963597310E-03
(PID.TID 0000.0001) %MON advcfl_vvel_max              =   1.2600673247481E-02
(PID.TID 0000.0001) %MON advcfl_wvel_max              =   1.8401464576879E-02
(PID.TID 0000.0001) %MON advcfl_W_hf_max              =   1.8459978812854E-02
(PID.TID 0000.0001) %MON pe_b_mean                    =   5.2701565538625E-04
(PID.TID 0000.0001) %MON ke_max                       =   3.9541079655035E-01
(PID.TID 0000.0001) %MON ke_mean                      =   3.5072957433116E-04
(PID.TID 0000.0001) %MON ke_vol                       =   1.3349978179709E+18
(PID.TID 0000.0001) %MON vort_r_min                   =  -1.2903853223100E-05
(PID.TID 0000.0001) %MON vort_r_max                   =   1.9509719782177E-05
(PID.TID 0000.0001) %MON vort_a_mean                  =  -1.9727864647440E-05
(PID.TID 0000.0001) %MON vort_a_sd                    =   7.4543011785077E-05
(PID.TID 0000.0001) %MON vort_p_mean                  =  -2.1760534331689E-05
(PID.TID 0000.0001) %MON vort_p_sd                    =   9.7245850047040E-05
(PID.TID 0000.0001) %MON surfExpan_theta_mean         =  -1.0465901484870E-07
(PID.TID 0000.0001) %MON surfExpan_salt_mean          =   2.3634545868467E-08
(PID.TID 0000.0001) // =======================================================
(PID.TID 0000.0001) // End MONITOR dynamic field statistics
(PID.TID 0000.0001) // =======================================================
(PID.TID 0000.0001) // =======================================================
(PID.TID 0000.0001) // Begin MONITOR SEAICE statistics
(PID.TID 0000.0001) // =======================================================
(PID.TID 0000.0001) %MON seaice_tsnumber              =                   640
(PID.TID 0000.0001) %MON seaice_time_sec              =   5.7600000000000E+05
(PID.TID 0000.0001) %MON seaice_uice_max              =   4.0000000000000E-01
(PID.TID 0000.0001) %MON seaice_uice_min              =  -4.0000000000000E-01
(PID.TID 0000.0001) %MON seaice_uice_mean             =  -8.3054598624025E-03
(PID.TID 0000.0001) %MON seaice_uice_sd               =   1.9802383574176E-01
(PID.TID 0000.0001) %MON seaice_uice_del2             =   2.2931571122150E-04
(PID.TID 0000.0001) %MON seaice_vice_max              =   4.0000000000000E-01
(PID.TID 0000.0001) %MON seaice_vice_min              =  -4.0000000000000E-01
(PID.TID 0000.0001) %MON seaice_vice_mean             =  -2.1960776359499E-02
(PID.TID 0000.0001) %MON seaice_vice_sd               =   2.1302038025672E-01
(PID.TID 0000.0001) %MON seaice_vice_del2             =   2.3932563818061E-04
(PID.TID 0000.0001) %MON seaice_area_max              =   1.0000000000000E+00
(PID.TID 0000.0001) %MON seaice_area_min              =   0.0000000000000E+00
(PID.TID 0000.0001) %MON seaice_area_mean             =   6.6295207486516E-02
(PID.TID 0000.0001) %MON seaice_area_sd               =   2.3060010472922E-01
(PID.TID 0000.0001) %MON seaice_area_del2             =   3.9916308760442E-04
(PID.TID 0000.0001) %MON seaice_heff_max              =   2.5029834541958E+01
(PID.TID 0000.0001) %MON seaice_heff_min              =   0.0000000000000E+00
(PID.TID 0000.0001) %MON seaice_heff_mean             =   2.1311332251706E-01
(PID.TID 0000.0001) %MON seaice_heff_sd               =   1.0670478641891E+00
(PID.TID 0000.0001) %MON seaice_heff_del2             =   3.8519929234646E-03
(PID.TID 0000.0001) %MON seaice_hsnow_max             =   8.2672642469988E+00
(PID.TID 0000.0001) %MON seaice_hsnow_min             =   0.0000000000000E+00
(PID.TID 0000.0001) %MON seaice_hsnow_mean            =   2.4122684900158E-02
(PID.TID 0000.0001) %MON seaice_hsnow_sd              =   1.5637140532927E-01
(PID.TID 0000.0001) %MON seaice_hsnow_del2            =   1.2412188702888E-03
(PID.TID 0000.0001) // =======================================================
(PID.TID 0000.0001) // End MONITOR SEAICE statistics
(PID.TID 0000.0001) // =======================================================
 Computing Diagnostic #     86  oceQnet      Counter:       4   Parms: SM      U1      
 Computing Diagnostic #     87  oceQsw       Counter:       4   Parms: SM      U1      
 Computing Diagnostic #     84  oceFWflx     Counter:       4   Parms: SM      U1      
 Computing Diagnostic #     85  oceSflux     Counter:       4   Parms: SM      U1      
 Computing Diagnostic #     80  oceTAUX      Counter:       4   Parms: UU      U1      
           Vector  Mate for  oceTAUX      Diagnostic #     81  oceTAUY  exists 
 Computing Diagnostic #     81  oceTAUY      Counter:       4   Parms: VV      U1      
           Vector  Mate for  oceTAUY      Diagnostic #     80  oceTAUX  exists 
 Computing Diagnostic #     26  THETA        Counter:       4   Parms: SMR     MR      
 Computing Diagnostic #     27  SALT         Counter:       4   Parms: SMR     MR      
 Computing Diagnostic #     30  UVEL         Counter:       4   Parms: UUR     MR      
           Vector  Mate for  UVEL         Diagnostic #     31  VVEL     exists 
 Computing Diagnostic #     31  VVEL         Counter:       4   Parms: VVR     MR      
           Vector  Mate for  VVEL         Diagnostic #     30  UVEL     exists 
 Computing Diagnostic #    214  SIarea       Counter:       4   Parms: SM      M1      
 Computing Diagnostic #    217  SIheff       Counter:       4   Parms: SM      M1      
 Computing Diagnostic #    219  SIhsnow      Counter:       4   Parms: SM      M1      
 Computing Diagnostic #     83  sIceLoad     Counter:       4   Parms: SM      U1      
 Computing Diagnostic #    223  SIuice       Counter:       4   Parms: UU      M1      
           Vector  Mate for  SIuice       Diagnostic #    224  SIvice   exists 
 Computing Diagnostic #    224  SIvice       Counter:       4   Parms: VV      M1      
           Vector  Mate for  SIvice       Diagnostic #    223  SIuice   exists 
 Computing Diagnostic #    225  SItaux       Counter:       4   Parms: UU      U1      
           Vector  Mate for  SItaux       Diagnostic #    226  SItauy   exists 
 Computing Diagnostic #    226  SItauy       Counter:       4   Parms: VV      U1      
           Vector  Mate for  SItauy       Diagnostic #    225  SItaux   exists 
 Computing Diagnostic #    285  SIareaN      Counter:       4   Parms: SM      MX      
 Computing Diagnostic #    284  SIheffN      Counter:       4   Parms: SM      MX      
 Computing Diagnostic #    286  SIhsnowN     Counter:       4   Parms: SM      MX      
 Compute Stats, Diag. #    214  SIarea    vol(   0 ): 3.580E+14  Parms: SM      M1      
 Compute Stats, Diag. #    217  SIheff    vol(   0 ): 3.580E+14  Parms: SM      M1      
 Compute Stats, Diag. #    219  SIhsnow   vol(   0 ): 3.580E+14  Parms: SM      M1      
 Compute Stats, Diag. #     83  sIceLoad  vol(   0 ): 3.580E+14  Parms: SM      U1      
 Compute Stats, Diag. #    223  SIuice    vol(   0 ): 3.513E+14  Parms: UU      M1      
 Compute Stats, Diag. #    224  SIvice    vol(   0 ): 3.508E+14  Parms: VV      M1      
 Compute Stats, Diag. #    225  SItaux    vol(   0 ): 3.513E+14  Parms: UU      U1      
 Compute Stats, Diag. #    226  SItauy    vol(   0 ): 3.508E+14  Parms: VV      U1      
 cg2d: Sum(rhs),rhsMax =   4.84388971375232E+00  2.92674644850226E-01
 Compute Stats, Diag. #    214  SIarea    vol(   0 ): 3.580E+14  Parms: SM      M1      
 Compute Stats, Diag. #    217  SIheff    vol(   0 ): 3.580E+14  Parms: SM      M1      
 Compute Stats, Diag. #    219  SIhsnow   vol(   0 ): 3.580E+14  Parms: SM      M1      
 Compute Stats, Diag. #     83  sIceLoad  vol(   0 ): 3.580E+14  Parms: SM      U1      
 Compute Stats, Diag. #    223  SIuice    vol(   0 ): 3.513E+14  Parms: UU      M1      
 Compute Stats, Diag. #    224  SIvice    vol(   0 ): 3.508E+14  Parms: VV      M1      
 Compute Stats, Diag. #    225  SItaux    vol(   0 ): 3.513E+14  Parms: UU      U1      
 Compute Stats, Diag. #    226  SItauy    vol(   0 ): 3.508E+14  Parms: VV      U1      
 cg2d: Sum(rhs),rhsMax =   4.65121123498604E+00  2.92641813264604E-01
 Compute Stats, Diag. #    214  SIarea    vol(   0 ): 3.580E+14  Parms: SM      M1      
 Compute Stats, Diag. #    217  SIheff    vol(   0 ): 3.580E+14  Parms: SM      M1      
 Compute Stats, Diag. #    219  SIhsnow   vol(   0 ): 3.580E+14  Parms: SM      M1      
 Compute Stats, Diag. #     83  sIceLoad  vol(   0 ): 3.580E+14  Parms: SM      U1      
 Compute Stats, Diag. #    223  SIuice    vol(   0 ): 3.513E+14  Parms: UU      M1      
 Compute Stats, Diag. #    224  SIvice    vol(   0 ): 3.508E+14  Parms: VV      M1      
 Compute Stats, Diag. #    225  SItaux    vol(   0 ): 3.513E+14  Parms: UU      U1      
 Compute Stats, Diag. #    226  SItauy    vol(   0 ): 3.508E+14  Parms: VV      U1      
 cg2d: Sum(rhs),rhsMax =   4.45921156465388E+00  2.92611039087149E-01
 Compute Stats, Diag. #    214  SIarea    vol(   0 ): 3.580E+14  Parms: SM      M1      
 Compute Stats, Diag. #    217  SIheff    vol(   0 ): 3.580E+14  Parms: SM      M1      
 Compute Stats, Diag. #    219  SIhsnow   vol(   0 ): 3.580E+14  Parms: SM      M1      
 Compute Stats, Diag. #     83  sIceLoad  vol(   0 ): 3.580E+14  Parms: SM      U1      
 Compute Stats, Diag. #    223  SIuice    vol(   0 ): 3.513E+14  Parms: UU      M1      
 Compute Stats, Diag. #    224  SIvice    vol(   0 ): 3.508E+14  Parms: VV      M1      
 Compute Stats, Diag. #    225  SItaux    vol(   0 ): 3.513E+14  Parms: UU      U1      
 Compute Stats, Diag. #    226  SItauy    vol(   0 ): 3.508E+14  Parms: VV      U1      
 cg2d: Sum(rhs),rhsMax =   4.26331108588394E+00  2.92583228079547E-01
 Computing Diagnostic #     86  oceQnet      Counter:       4   Parms: SM      U1      
 Computing Diagnostic #     87  oceQsw       Counter:       4   Parms: SM      U1      
 Computing Diagnostic #     84  oceFWflx     Counter:       4   Parms: SM      U1      
 Computing Diagnostic #     85  oceSflux     Counter:       4   Parms: SM      U1      
 Computing Diagnostic #     80  oceTAUX      Counter:       4   Parms: UU      U1      
           Vector  Mate for  oceTAUX      Diagnostic #     81  oceTAUY  exists 
 Computing Diagnostic #     81  oceTAUY      Counter:       4   Parms: VV      U1      
           Vector  Mate for  oceTAUY      Diagnostic #     80  oceTAUX  exists 
 Computing Diagnostic #     26  THETA        Counter:       4   Parms: SMR     MR      
 Computing Diagnostic #     27  SALT         Counter:       4   Parms: SMR     MR      
 Computing Diagnostic #     30  UVEL         Counter:       4   Parms: UUR     MR      
           Vector  Mate for  UVEL         Diagnostic #     31  VVEL     exists 
 Computing Diagnostic #     31  VVEL         Counter:       4   Parms: VVR     MR      
           Vector  Mate for  VVEL         Diagnostic #     30  UVEL     exists 
 Computing Diagnostic #    214  SIarea       Counter:       4   Parms: SM      M1      
 Computing Diagnostic #    217  SIheff       Counter:       4   Parms: SM      M1      
 Computing Diagnostic #    219  SIhsnow      Counter:       4   Parms: SM      M1      
 Computing Diagnostic #     83  sIceLoad     Counter:       4   Parms: SM      U1      
 Computing Diagnostic #    223  SIuice       Counter:       4   Parms: UU      M1      
           Vector  Mate for  SIuice       Diagnostic #    224  SIvice   exists 
 Computing Diagnostic #    224  SIvice       Counter:       4   Parms: VV      M1      
           Vector  Mate for  SIvice       Diagnostic #    223  SIuice   exists 
 Computing Diagnostic #    225  SItaux       Counter:       4   Parms: UU      U1      
           Vector  Mate for  SItaux       Diagnostic #    226  SItauy   exists 
 Computing Diagnostic #    226  SItauy       Counter:       4   Parms: VV      U1      
           Vector  Mate for  SItauy       Diagnostic #    225  SItaux   exists 
 Computing Diagnostic #    285  SIareaN      Counter:       4   Parms: SM      MX      
 Computing Diagnostic #    284  SIheffN      Counter:       4   Parms: SM      MX      
 Computing Diagnostic #    286  SIhsnowN     Counter:       4   Parms: SM      MX      
 Compute Stats, Diag. #    214  SIarea    vol(   0 ): 3.580E+14  Parms: SM      M1      
 Compute Stats, Diag. #    217  SIheff    vol(   0 ): 3.580E+14  Parms: SM      M1      
 Compute Stats, Diag. #    219  SIhsnow   vol(   0 ): 3.580E+14  Parms: SM      M1      
 Compute Stats, Diag. #     83  sIceLoad  vol(   0 ): 3.580E+14  Parms: SM      U1      
 Compute Stats, Diag. #    223  SIuice    vol(   0 ): 3.513E+14  Parms: UU      M1      
 Compute Stats, Diag. #    224  SIvice    vol(   0 ): 3.508E+14  Parms: VV      M1      
 Compute Stats, Diag. #    225  SItaux    vol(   0 ): 3.513E+14  Parms: UU      U1      
 Compute Stats, Diag. #    226  SItauy    vol(   0 ): 3.508E+14  Parms: VV      U1      
 cg2d: Sum(rhs),rhsMax =   4.07402924472089E+00  2.92558224922712E-01
 Compute Stats, Diag. #    214  SIarea    vol(   0 ): 3.580E+14  Parms: SM      M1      
 Compute Stats, Diag. #    217  SIheff    vol(   0 ): 3.580E+14  Parms: SM      M1      
 Compute Stats, Diag. #    219  SIhsnow   vol(   0 ): 3.580E+14  Parms: SM      M1      
 Compute Stats, Diag. #     83  sIceLoad  vol(   0 ): 3.580E+14  Parms: SM      U1      
 Compute Stats, Diag. #    223  SIuice    vol(   0 ): 3.513E+14  Parms: UU      M1      
 Compute Stats, Diag. #    224  SIvice    vol(   0 ): 3.508E+14  Parms: VV      M1      
 Compute Stats, Diag. #    225  SItaux    vol(   0 ): 3.513E+14  Parms: UU      U1      
 Compute Stats, Diag. #    226  SItauy    vol(   0 ): 3.508E+14  Parms: VV      U1      
 cg2d: Sum(rhs),rhsMax =   3.88873163856481E+00  2.92546459375043E-01
 Compute Stats, Diag. #    214  SIarea    vol(   0 ): 3.580E+14  Parms: SM      M1      
 Compute Stats, Diag. #    217  SIheff    vol(   0 ): 3.580E+14  Parms: SM      M1      
 Compute Stats, Diag. #    219  SIhsnow   vol(   0 ): 3.580E+14  Parms: SM      M1      
 Compute Stats, Diag. #     83  sIceLoad  vol(   0 ): 3.580E+14  Parms: SM      U1      
 Compute Stats, Diag. #    223  SIuice    vol(   0 ): 3.513E+14  Parms: UU      M1      
 Compute Stats, Diag. #    224  SIvice    vol(   0 ): 3.508E+14  Parms: VV      M1      
 Compute Stats, Diag. #    225  SItaux    vol(   0 ): 3.513E+14  Parms: UU      U1      
 Compute Stats, Diag. #    226  SItauy    vol(   0 ): 3.508E+14  Parms: VV      U1      
 cg2d: Sum(rhs),rhsMax =   3.69247778152943E+00  2.92547002619709E-01
 Compute Stats, Diag. #    214  SIarea    vol(   0 ): 3.580E+14  Parms: SM      M1      
 Compute Stats, Diag. #    217  SIheff    vol(   0 ): 3.580E+14  Parms: SM      M1      
 Compute Stats, Diag. #    219  SIhsnow   vol(   0 ): 3.580E+14  Parms: SM      M1      
 Compute Stats, Diag. #     83  sIceLoad  vol(   0 ): 3.580E+14  Parms: SM      U1      
 Compute Stats, Diag. #    223  SIuice    vol(   0 ): 3.513E+14  Parms: UU      M1      
 Compute Stats, Diag. #    224  SIvice    vol(   0 ): 3.508E+14  Parms: VV      M1      
 Compute Stats, Diag. #    225  SItaux    vol(   0 ): 3.513E+14  Parms: UU      U1      
 Compute Stats, Diag. #    226  SItauy    vol(   0 ): 3.508E+14  Parms: VV      U1      
 cg2d: Sum(rhs),rhsMax =   3.48828246027331E+00  2.92552633081078E-01
(PID.TID 0000.0001)      cg2d_init_res =   4.42389393257968E-02
(PID.TID 0000.0001)      cg2d_iters(min,last) =      -1      25
(PID.TID 0000.0001)      cg2d_last_res =   2.36430134015780E-05
(PID.TID 0000.0001) // =======================================================
(PID.TID 0000.0001) // Begin MONITOR dynamic field statistics
(PID.TID 0000.0001) // =======================================================
(PID.TID 0000.0001) %MON time_tsnumber                =                   648
(PID.TID 0000.0001) %MON time_secondsf                =   5.8320000000000E+05
(PID.TID 0000.0001) %MON dynstat_eta_max              =   1.0226465464203E+00
(PID.TID 0000.0001) %MON dynstat_eta_min              =  -1.8539771554319E+00
(PID.TID 0000.0001) %MON dynstat_eta_mean             =  -1.1034551505334E-04
(PID.TID 0000.0001) %MON dynstat_eta_sd               =   6.3308797321463E-01
(PID.TID 0000.0001) %MON dynstat_eta_del2             =   5.4074518759778E-05
(PID.TID 0000.0001) %MON dynstat_uvel_max             =   7.3457130578353E-01
(PID.TID 0000.0001) %MON dynstat_uvel_min             =  -6.1915320720374E-01
(PID.TID 0000.0001) %MON dynstat_uvel_mean            =   1.4168174145635E-03
(PID.TID 0000.0001) %MON dynstat_uvel_sd              =   1.8549961688788E-02
(PID.TID 0000.0001) %MON dynstat_uvel_del2            =   7.4525221038832E-06
(PID.TID 0000.0001) %MON dynstat_vvel_max             =   6.8529359267820E-01
(PID.TID 0000.0001) %MON dynstat_vvel_min             =  -8.9066870724309E-01
(PID.TID 0000.0001) %MON dynstat_vvel_mean            =   1.1613475407271E-03
(PID.TID 0000.0001) %MON dynstat_vvel_sd              =   1.9495374486939E-02
(PID.TID 0000.0001) %MON dynstat_vvel_del2            =   7.4808443016012E-06
(PID.TID 0000.0001) %MON dynstat_wvel_max             =   3.1992438059566E-04
(PID.TID 0000.0001) %MON dynstat_wvel_min             =  -8.2900749915066E-04
(PID.TID 0000.0001) %MON dynstat_wvel_mean            =  -3.2233365440554E-09
(PID.TID 0000.0001) %MON dynstat_wvel_sd              =   1.9051339946890E-05
(PID.TID 0000.0001) %MON dynstat_wvel_del2            =   1.4568347255658E-08
(PID.TID 0000.0001) %MON dynstat_theta_max            =   3.2193228322688E+01
(PID.TID 0000.0001) %MON dynstat_theta_min            =  -2.0401509738893E+00
(PID.TID 0000.0001) %MON dynstat_theta_mean           =   3.5902858347817E+00
(PID.TID 0000.0001) %MON dynstat_theta_sd             =   4.4364710609538E+00
(PID.TID 0000.0001) %MON dynstat_theta_del2           =   9.3040439888691E-05
(PID.TID 0000.0001) %MON dynstat_salt_max             =   4.0711556873958E+01
(PID.TID 0000.0001) %MON dynstat_salt_min             =   8.3165697070730E+00
(PID.TID 0000.0001) %MON dynstat_salt_mean            =   3.4725572407687E+01
(PID.TID 0000.0001) %MON dynstat_salt_sd              =   3.7704160813247E-01
(PID.TID 0000.0001) %MON dynstat_salt_del2            =   3.6247683290766E-05
(PID.TID 0000.0001) %MON dynstat_sst_max              =   3.2193228322688E+01
(PID.TID 0000.0001) %MON dynstat_sst_min              =  -1.8148011516706E+00
(PID.TID 0000.0001) %MON dynstat_sst_mean             =   1.8473978358876E+01
(PID.TID 0000.0001) %MON dynstat_sst_sd               =   1.0231238864653E+01
(PID.TID 0000.0001) %MON dynstat_sst_del2             =   8.0409585427005E-04
(PID.TID 0000.0001) %MON dynstat_sss_max              =   3.9105451560020E+01
(PID.TID 0000.0001) %MON dynstat_sss_min              =   8.3165697070730E+00
(PID.TID 0000.0001) %MON dynstat_sss_mean             =   3.4700203619500E+01
(PID.TID 0000.0001) %MON dynstat_sss_sd               =   1.1664877645617E+00
(PID.TID 0000.0001) %MON dynstat_sss_del2             =   1.1365353720157E-03
(PID.TID 0000.0001) %MON forcing_qnet_max             =   8.2423707590703E+02
(PID.TID 0000.0001) %MON forcing_qnet_min             =  -9.1837518310547E+02
(PID.TID 0000.0001) %MON forcing_qnet_mean            =   7.9059452790416E+00
(PID.TID 0000.0001) %MON forcing_qnet_sd              =   2.0151082160232E+02
(PID.TID 0000.0001) %MON forcing_qnet_del2            =   3.2866037289847E-01
(PID.TID 0000.0001) %MON forcing_qsw_max              =   0.0000000000000E+00
(PID.TID 0000.0001) %MON forcing_qsw_min              =  -1.0960854750072E+02
(PID.TID 0000.0001) %MON forcing_qsw_mean             =  -1.7086448268742E+01
(PID.TID 0000.0001) %MON forcing_qsw_sd               =   2.8849592826931E+01
(PID.TID 0000.0001) %MON forcing_qsw_del2             =   2.1500266325525E-02
(PID.TID 0000.0001) %MON forcing_empmr_max            =   1.2858073459938E-03
(PID.TID 0000.0001) %MON forcing_empmr_min            =  -8.6458519101143E-02
(PID.TID 0000.0001) %MON forcing_empmr_mean           =  -7.3851903586701E-06
(PID.TID 0000.0001) %MON forcing_empmr_sd             =   3.5368306209542E-04
(PID.TID 0000.0001) %MON forcing_empmr_del2           =   3.8113628100633E-06
(PID.TID 0000.0001) %MON forcing_fu_max               =   7.8961545228959E-01
(PID.TID 0000.0001) %MON forcing_fu_min               =  -9.9565389752388E-01
(PID.TID 0000.0001) %MON forcing_fu_mean              =   2.5626299734314E-03
(PID.TID 0000.0001) %MON forcing_fu_sd                =   1.0213919137398E-01
(PID.TID 0000.0001) %MON forcing_fu_del2              =   1.4731311696311E-04
(PID.TID 0000.0001) %MON forcing_fv_max               =   9.1644904017448E-01
(PID.TID 0000.0001) %MON forcing_fv_min               =  -7.2928646206856E-01
(PID.TID 0000.0001) %MON forcing_fv_mean              =  -9.2418889400679E-03
(PID.TID 0000.0001) %MON forcing_fv_sd                =   1.0857933106076E-01
(PID.TID 0000.0001) %MON forcing_fv_del2              =   1.4626335057949E-04
(PID.TID 0000.0001) %MON trAdv_CFL_u_max              =   1.4585019733626E-02
(PID.TID 0000.0001) %MON trAdv_CFL_v_max              =   1.2373613883199E-02
(PID.TID 0000.0001) %MON trAdv_CFL_w_max              =   1.9850805268764E-02
(PID.TID 0000.0001) %MON advcfl_uvel_max              =   7.1816147810674E-03
(PID.TID 0000.0001) %MON advcfl_vvel_max              =   1.2164580891785E-02
(PID.TID 0000.0001) %MON advcfl_wvel_max              =   1.8618095836390E-02
(PID.TID 0000.0001) %MON advcfl_W_hf_max              =   1.8677727932384E-02
(PID.TID 0000.0001) %MON pe_b_mean                    =   5.2721338967427E-04
(PID.TID 0000.0001) %MON ke_max                       =   3.9702481098839E-01
(PID.TID 0000.0001) %MON ke_mean                      =   3.5080915987657E-04
(PID.TID 0000.0001) %MON ke_vol                       =   1.3349978351215E+18
(PID.TID 0000.0001) %MON vort_r_min                   =  -1.2918006982873E-05
(PID.TID 0000.0001) %MON vort_r_max                   =   1.8802987847987E-05
(PID.TID 0000.0001) %MON vort_a_mean                  =  -1.9727864647440E-05
(PID.TID 0000.0001) %MON vort_a_sd                    =   7.4543007049748E-05
(PID.TID 0000.0001) %MON vort_p_mean                  =  -2.1760534030595E-05
(PID.TID 0000.0001) %MON vort_p_sd                    =   9.7245757703205E-05
(PID.TID 0000.0001) %MON surfExpan_theta_mean         =  -7.3284781546489E-08
(PID.TID 0000.0001) %MON surfExpan_salt_mean          =   2.4833808453577E-08
(PID.TID 0000.0001) // =======================================================
(PID.TID 0000.0001) // End MONITOR dynamic field statistics
(PID.TID 0000.0001) // =======================================================
(PID.TID 0000.0001) // =======================================================
(PID.TID 0000.0001) // Begin MONITOR SEAICE statistics
(PID.TID 0000.0001) // =======================================================
(PID.TID 0000.0001) %MON seaice_tsnumber              =                   648
(PID.TID 0000.0001) %MON seaice_time_sec              =   5.8320000000000E+05
(PID.TID 0000.0001) %MON seaice_uice_max              =   4.0000000000000E-01
(PID.TID 0000.0001) %MON seaice_uice_min              =  -4.0000000000000E-01
(PID.TID 0000.0001) %MON seaice_uice_mean             =  -8.3054598624025E-03
(PID.TID 0000.0001) %MON seaice_uice_sd               =   1.9802383574176E-01
(PID.TID 0000.0001) %MON seaice_uice_del2             =   2.2931571122150E-04
(PID.TID 0000.0001) %MON seaice_vice_max              =   4.0000000000000E-01
(PID.TID 0000.0001) %MON seaice_vice_min              =  -4.0000000000000E-01
(PID.TID 0000.0001) %MON seaice_vice_mean             =  -2.1960776359499E-02
(PID.TID 0000.0001) %MON seaice_vice_sd               =   2.1302038025672E-01
(PID.TID 0000.0001) %MON seaice_vice_del2             =   2.3932563818061E-04
(PID.TID 0000.0001) %MON seaice_area_max              =   1.0000000000000E+00
(PID.TID 0000.0001) %MON seaice_area_min              =   0.0000000000000E+00
(PID.TID 0000.0001) %MON seaice_area_mean             =   6.6265065956374E-02
(PID.TID 0000.0001) %MON seaice_area_sd               =   2.3054400666448E-01
(PID.TID 0000.0001) %MON seaice_area_del2             =   3.9866890307618E-04
(PID.TID 0000.0001) %MON seaice_heff_max              =   2.5027480229503E+01
(PID.TID 0000.0001) %MON seaice_heff_min              =   0.0000000000000E+00
(PID.TID 0000.0001) %MON seaice_heff_mean             =   2.1307944376814E-01
(PID.TID 0000.0001) %MON seaice_heff_sd               =   1.0670126627168E+00
(PID.TID 0000.0001) %MON seaice_heff_del2             =   3.8512459506445E-03
(PID.TID 0000.0001) %MON seaice_hsnow_max             =   8.2664916364593E+00
(PID.TID 0000.0001) %MON seaice_hsnow_min             =   0.0000000000000E+00
(PID.TID 0000.0001) %MON seaice_hsnow_mean            =   2.4112503587786E-02
(PID.TID 0000.0001) %MON seaice_hsnow_sd              =   1.5635135215112E-01
(PID.TID 0000.0001) %MON seaice_hsnow_del2            =   1.2410939588040E-03
(PID.TID 0000.0001) // =======================================================
(PID.TID 0000.0001) // End MONITOR SEAICE statistics
(PID.TID 0000.0001) // =======================================================
 Computing Diagnostic #     86  oceQnet      Counter:       4   Parms: SM      U1      
 Computing Diagnostic #     87  oceQsw       Counter:       4   Parms: SM      U1      
 Computing Diagnostic #     84  oceFWflx     Counter:       4   Parms: SM      U1      
 Computing Diagnostic #     85  oceSflux     Counter:       4   Parms: SM      U1      
 Computing Diagnostic #     80  oceTAUX      Counter:       4   Parms: UU      U1      
           Vector  Mate for  oceTAUX      Diagnostic #     81  oceTAUY  exists 
 Computing Diagnostic #     81  oceTAUY      Counter:       4   Parms: VV      U1      
           Vector  Mate for  oceTAUY      Diagnostic #     80  oceTAUX  exists 
 Computing Diagnostic #     26  THETA        Counter:       4   Parms: SMR     MR      
 Computing Diagnostic #     27  SALT         Counter:       4   Parms: SMR     MR      
 Computing Diagnostic #     30  UVEL         Counter:       4   Parms: UUR     MR      
           Vector  Mate for  UVEL         Diagnostic #     31  VVEL     exists 
 Computing Diagnostic #     31  VVEL         Counter:       4   Parms: VVR     MR      
           Vector  Mate for  VVEL         Diagnostic #     30  UVEL     exists 
 Computing Diagnostic #    214  SIarea       Counter:       4   Parms: SM      M1      
 Computing Diagnostic #    217  SIheff       Counter:       4   Parms: SM      M1      
 Computing Diagnostic #    219  SIhsnow      Counter:       4   Parms: SM      M1      
 Computing Diagnostic #     83  sIceLoad     Counter:       4   Parms: SM      U1      
 Computing Diagnostic #    223  SIuice       Counter:       4   Parms: UU      M1      
           Vector  Mate for  SIuice       Diagnostic #    224  SIvice   exists 
 Computing Diagnostic #    224  SIvice       Counter:       4   Parms: VV      M1      
           Vector  Mate for  SIvice       Diagnostic #    223  SIuice   exists 
 Computing Diagnostic #    225  SItaux       Counter:       4   Parms: UU      U1      
           Vector  Mate for  SItaux       Diagnostic #    226  SItauy   exists 
 Computing Diagnostic #    226  SItauy       Counter:       4   Parms: VV      U1      
           Vector  Mate for  SItauy       Diagnostic #    225  SItaux   exists 
 Computing Diagnostic #    285  SIareaN      Counter:       4   Parms: SM      MX      
 Computing Diagnostic #    284  SIheffN      Counter:       4   Parms: SM      MX      
 Computing Diagnostic #    286  SIhsnowN     Counter:       4   Parms: SM      MX      
 Compute Stats, Diag. #    214  SIarea    vol(   0 ): 3.580E+14  Parms: SM      M1      
 Compute Stats, Diag. #    217  SIheff    vol(   0 ): 3.580E+14  Parms: SM      M1      
 Compute Stats, Diag. #    219  SIhsnow   vol(   0 ): 3.580E+14  Parms: SM      M1      
 Compute Stats, Diag. #     83  sIceLoad  vol(   0 ): 3.580E+14  Parms: SM      U1      
 Compute Stats, Diag. #    223  SIuice    vol(   0 ): 3.513E+14  Parms: UU      M1      
 Compute Stats, Diag. #    224  SIvice    vol(   0 ): 3.508E+14  Parms: VV      M1      
 Compute Stats, Diag. #    225  SItaux    vol(   0 ): 3.513E+14  Parms: UU      U1      
 Compute Stats, Diag. #    226  SItauy    vol(   0 ): 3.508E+14  Parms: VV      U1      
 cg2d: Sum(rhs),rhsMax =   3.29222542939254E+00  2.92562837953098E-01
 Compute Stats, Diag. #    214  SIarea    vol(   0 ): 3.580E+14  Parms: SM      M1      
 Compute Stats, Diag. #    217  SIheff    vol(   0 ): 3.580E+14  Parms: SM      M1      
 Compute Stats, Diag. #    219  SIhsnow   vol(   0 ): 3.580E+14  Parms: SM      M1      
 Compute Stats, Diag. #     83  sIceLoad  vol(   0 ): 3.580E+14  Parms: SM      U1      
 Compute Stats, Diag. #    223  SIuice    vol(   0 ): 3.513E+14  Parms: UU      M1      
 Compute Stats, Diag. #    224  SIvice    vol(   0 ): 3.508E+14  Parms: VV      M1      
 Compute Stats, Diag. #    225  SItaux    vol(   0 ): 3.513E+14  Parms: UU      U1      
 Compute Stats, Diag. #    226  SItauy    vol(   0 ): 3.508E+14  Parms: VV      U1      
 cg2d: Sum(rhs),rhsMax =   3.09410460860970E+00  2.92577637389995E-01
 Compute Stats, Diag. #    214  SIarea    vol(   0 ): 3.580E+14  Parms: SM      M1      
 Compute Stats, Diag. #    217  SIheff    vol(   0 ): 3.580E+14  Parms: SM      M1      
 Compute Stats, Diag. #    219  SIhsnow   vol(   0 ): 3.580E+14  Parms: SM      M1      
 Compute Stats, Diag. #     83  sIceLoad  vol(   0 ): 3.580E+14  Parms: SM      U1      
 Compute Stats, Diag. #    223  SIuice    vol(   0 ): 3.513E+14  Parms: UU      M1      
 Compute Stats, Diag. #    224  SIvice    vol(   0 ): 3.508E+14  Parms: VV      M1      
 Compute Stats, Diag. #    225  SItaux    vol(   0 ): 3.513E+14  Parms: UU      U1      
 Compute Stats, Diag. #    226  SItauy    vol(   0 ): 3.508E+14  Parms: VV      U1      
 cg2d: Sum(rhs),rhsMax =   2.90414934756824E+00  2.92597266660331E-01
 Compute Stats, Diag. #    214  SIarea    vol(   0 ): 3.580E+14  Parms: SM      M1      
 Compute Stats, Diag. #    217  SIheff    vol(   0 ): 3.580E+14  Parms: SM      M1      
 Compute Stats, Diag. #    219  SIhsnow   vol(   0 ): 3.580E+14  Parms: SM      M1      
 Compute Stats, Diag. #     83  sIceLoad  vol(   0 ): 3.580E+14  Parms: SM      U1      
 Compute Stats, Diag. #    223  SIuice    vol(   0 ): 3.513E+14  Parms: UU      M1      
 Compute Stats, Diag. #    224  SIvice    vol(   0 ): 3.508E+14  Parms: VV      M1      
 Compute Stats, Diag. #    225  SItaux    vol(   0 ): 3.513E+14  Parms: UU      U1      
 Compute Stats, Diag. #    226  SItauy    vol(   0 ): 3.508E+14  Parms: VV      U1      
 cg2d: Sum(rhs),rhsMax =   2.70629547861643E+00  2.92621020601129E-01
 Computing Diagnostic #     86  oceQnet      Counter:       4   Parms: SM      U1      
 Computing Diagnostic #     87  oceQsw       Counter:       4   Parms: SM      U1      
 Computing Diagnostic #     84  oceFWflx     Counter:       4   Parms: SM      U1      
 Computing Diagnostic #     85  oceSflux     Counter:       4   Parms: SM      U1      
 Computing Diagnostic #     80  oceTAUX      Counter:       4   Parms: UU      U1      
           Vector  Mate for  oceTAUX      Diagnostic #     81  oceTAUY  exists 
 Computing Diagnostic #     81  oceTAUY      Counter:       4   Parms: VV      U1      
           Vector  Mate for  oceTAUY      Diagnostic #     80  oceTAUX  exists 
 Computing Diagnostic #     26  THETA        Counter:       4   Parms: SMR     MR      
 Computing Diagnostic #     27  SALT         Counter:       4   Parms: SMR     MR      
 Computing Diagnostic #     30  UVEL         Counter:       4   Parms: UUR     MR      
           Vector  Mate for  UVEL         Diagnostic #     31  VVEL     exists 
 Computing Diagnostic #     31  VVEL         Counter:       4   Parms: VVR     MR      
           Vector  Mate for  VVEL         Diagnostic #     30  UVEL     exists 
 Computing Diagnostic #    214  SIarea       Counter:       4   Parms: SM      M1      
 Computing Diagnostic #    217  SIheff       Counter:       4   Parms: SM      M1      
 Computing Diagnostic #    219  SIhsnow      Counter:       4   Parms: SM      M1      
 Computing Diagnostic #     83  sIceLoad     Counter:       4   Parms: SM      U1      
 Computing Diagnostic #    223  SIuice       Counter:       4   Parms: UU      M1      
           Vector  Mate for  SIuice       Diagnostic #    224  SIvice   exists 
 Computing Diagnostic #    224  SIvice       Counter:       4   Parms: VV      M1      
           Vector  Mate for  SIvice       Diagnostic #    223  SIuice   exists 
 Computing Diagnostic #    225  SItaux       Counter:       4   Parms: UU      U1      
           Vector  Mate for  SItaux       Diagnostic #    226  SItauy   exists 
 Computing Diagnostic #    226  SItauy       Counter:       4   Parms: VV      U1      
           Vector  Mate for  SItauy       Diagnostic #    225  SItaux   exists 
 Computing Diagnostic #    285  SIareaN      Counter:       4   Parms: SM      MX      
 Computing Diagnostic #    284  SIheffN      Counter:       4   Parms: SM      MX      
 Computing Diagnostic #    286  SIhsnowN     Counter:       4   Parms: SM      MX      
 Compute Stats, Diag. #    214  SIarea    vol(   0 ): 3.580E+14  Parms: SM      M1      
 Compute Stats, Diag. #    217  SIheff    vol(   0 ): 3.580E+14  Parms: SM      M1      
 Compute Stats, Diag. #    219  SIhsnow   vol(   0 ): 3.580E+14  Parms: SM      M1      
 Compute Stats, Diag. #     83  sIceLoad  vol(   0 ): 3.580E+14  Parms: SM      U1      
 Compute Stats, Diag. #    223  SIuice    vol(   0 ): 3.513E+14  Parms: UU      M1      
 Compute Stats, Diag. #    224  SIvice    vol(   0 ): 3.508E+14  Parms: VV      M1      
 Compute Stats, Diag. #    225  SItaux    vol(   0 ): 3.513E+14  Parms: UU      U1      
 Compute Stats, Diag. #    226  SItauy    vol(   0 ): 3.508E+14  Parms: VV      U1      
 cg2d: Sum(rhs),rhsMax =   2.51317679387354E+00  2.92649196509081E-01
 Compute Stats, Diag. #    214  SIarea    vol(   0 ): 3.580E+14  Parms: SM      M1      
 Compute Stats, Diag. #    217  SIheff    vol(   0 ): 3.580E+14  Parms: SM      M1      
 Compute Stats, Diag. #    219  SIhsnow   vol(   0 ): 3.580E+14  Parms: SM      M1      
 Compute Stats, Diag. #     83  sIceLoad  vol(   0 ): 3.580E+14  Parms: SM      U1      
 Compute Stats, Diag. #    223  SIuice    vol(   0 ): 3.513E+14  Parms: UU      M1      
 Compute Stats, Diag. #    224  SIvice    vol(   0 ): 3.508E+14  Parms: VV      M1      
 Compute Stats, Diag. #    225  SItaux    vol(   0 ): 3.513E+14  Parms: UU      U1      
 Compute Stats, Diag. #    226  SItauy    vol(   0 ): 3.508E+14  Parms: VV      U1      
 cg2d: Sum(rhs),rhsMax =   2.31259971860227E+00  2.92680932450612E-01
 Compute Stats, Diag. #    214  SIarea    vol(   0 ): 3.580E+14  Parms: SM      M1      
 Compute Stats, Diag. #    217  SIheff    vol(   0 ): 3.580E+14  Parms: SM      M1      
 Compute Stats, Diag. #    219  SIhsnow   vol(   0 ): 3.580E+14  Parms: SM      M1      
 Compute Stats, Diag. #     83  sIceLoad  vol(   0 ): 3.580E+14  Parms: SM      U1      
 Compute Stats, Diag. #    223  SIuice    vol(   0 ): 3.513E+14  Parms: UU      M1      
 Compute Stats, Diag. #    224  SIvice    vol(   0 ): 3.508E+14  Parms: VV      M1      
 Compute Stats, Diag. #    225  SItaux    vol(   0 ): 3.513E+14  Parms: UU      U1      
 Compute Stats, Diag. #    226  SItauy    vol(   0 ): 3.508E+14  Parms: VV      U1      
 cg2d: Sum(rhs),rhsMax =   2.11838837042701E+00  2.92716380463640E-01
 Compute Stats, Diag. #    214  SIarea    vol(   0 ): 3.580E+14  Parms: SM      M1      
 Compute Stats, Diag. #    217  SIheff    vol(   0 ): 3.580E+14  Parms: SM      M1      
 Compute Stats, Diag. #    219  SIhsnow   vol(   0 ): 3.580E+14  Parms: SM      M1      
 Compute Stats, Diag. #     83  sIceLoad  vol(   0 ): 3.580E+14  Parms: SM      U1      
 Compute Stats, Diag. #    223  SIuice    vol(   0 ): 3.513E+14  Parms: UU      M1      
 Compute Stats, Diag. #    224  SIvice    vol(   0 ): 3.508E+14  Parms: VV      M1      
 Compute Stats, Diag. #    225  SItaux    vol(   0 ): 3.513E+14  Parms: UU      U1      
 Compute Stats, Diag. #    226  SItauy    vol(   0 ): 3.508E+14  Parms: VV      U1      
 cg2d: Sum(rhs),rhsMax =   1.93669202851147E+00  2.92755147067526E-01
(PID.TID 0000.0001)      cg2d_init_res =   4.41666359036537E-02
(PID.TID 0000.0001)      cg2d_iters(min,last) =      -1      25
(PID.TID 0000.0001)      cg2d_last_res =   2.31039931112684E-05
(PID.TID 0000.0001) // =======================================================
(PID.TID 0000.0001) // Begin MONITOR dynamic field statistics
(PID.TID 0000.0001) // =======================================================
(PID.TID 0000.0001) %MON time_tsnumber                =                   656
(PID.TID 0000.0001) %MON time_secondsf                =   5.9040000000000E+05
(PID.TID 0000.0001) %MON dynstat_eta_max              =   1.0240986703465E+00
(PID.TID 0000.0001) %MON dynstat_eta_min              =  -1.8537455742303E+00
(PID.TID 0000.0001) %MON dynstat_eta_mean             =  -6.1263754245707E-05
(PID.TID 0000.0001) %MON dynstat_eta_sd               =   6.3325918720747E-01
(PID.TID 0000.0001) %MON dynstat_eta_del2             =   5.3969986399548E-05
(PID.TID 0000.0001) %MON dynstat_uvel_max             =   7.3311499458386E-01
(PID.TID 0000.0001) %MON dynstat_uvel_min             =  -6.2169160351859E-01
(PID.TID 0000.0001) %MON dynstat_uvel_mean            =   1.4136412382307E-03
(PID.TID 0000.0001) %MON dynstat_uvel_sd              =   1.8566438905742E-02
(PID.TID 0000.0001) %MON dynstat_uvel_del2            =   7.4282734569751E-06
(PID.TID 0000.0001) %MON dynstat_vvel_max             =   6.6247000486035E-01
(PID.TID 0000.0001) %MON dynstat_vvel_min             =  -8.9082667921062E-01
(PID.TID 0000.0001) %MON dynstat_vvel_mean            =   1.1570996531756E-03
(PID.TID 0000.0001) %MON dynstat_vvel_sd              =   1.9489717892040E-02
(PID.TID 0000.0001) %MON dynstat_vvel_del2            =   7.4717796513762E-06
(PID.TID 0000.0001) %MON dynstat_wvel_max             =   3.1684680545181E-04
(PID.TID 0000.0001) %MON dynstat_wvel_min             =  -8.3397915975159E-04
(PID.TID 0000.0001) %MON dynstat_wvel_mean            =  -3.1338519825590E-09
(PID.TID 0000.0001) %MON dynstat_wvel_sd              =   1.9327789763019E-05
(PID.TID 0000.0001) %MON dynstat_wvel_del2            =   1.4566617614519E-08
(PID.TID 0000.0001) %MON dynstat_theta_max            =   3.2180766898810E+01
(PID.TID 0000.0001) %MON dynstat_theta_min            =  -2.0401391192025E+00
(PID.TID 0000.0001) %MON dynstat_theta_mean           =   3.5902851793426E+00
(PID.TID 0000.0001) %MON dynstat_theta_sd             =   4.4364862653804E+00
(PID.TID 0000.0001) %MON dynstat_theta_del2           =   9.2953859725255E-05
(PID.TID 0000.0001) %MON dynstat_salt_max             =   4.0711556903542E+01
(PID.TID 0000.0001) %MON dynstat_salt_min             =   7.9816935237816E+00
(PID.TID 0000.0001) %MON dynstat_salt_mean            =   3.4725571997529E+01
(PID.TID 0000.0001) %MON dynstat_salt_sd              =   3.7704336634581E-01
(PID.TID 0000.0001) %MON dynstat_salt_del2            =   3.6138507211085E-05
(PID.TID 0000.0001) %MON dynstat_sst_max              =   3.2174904985463E+01
(PID.TID 0000.0001) %MON dynstat_sst_min              =  -1.8155139783165E+00
(PID.TID 0000.0001) %MON dynstat_sst_mean             =   1.8475920772229E+01
(PID.TID 0000.0001) %MON dynstat_sst_sd               =   1.0233346716039E+01
(PID.TID 0000.0001) %MON dynstat_sst_del2             =   8.0331913945777E-04
(PID.TID 0000.0001) %MON dynstat_sss_max              =   3.9105171964653E+01
(PID.TID 0000.0001) %MON dynstat_sss_min              =   7.9816935237816E+00
(PID.TID 0000.0001) %MON dynstat_sss_mean             =   3.4700184152246E+01
(PID.TID 0000.0001) %MON dynstat_sss_sd               =   1.1669297177743E+00
(PID.TID 0000.0001) %MON dynstat_sss_del2             =   1.1313904159976E-03
(PID.TID 0000.0001) %MON forcing_qnet_max             =   8.3438236930771E+02
(PID.TID 0000.0001) %MON forcing_qnet_min             =  -7.5150829359728E+02
(PID.TID 0000.0001) %MON forcing_qnet_mean            =  -2.4494978798576E+00
(PID.TID 0000.0001) %MON forcing_qnet_sd              =   1.9392772898719E+02
(PID.TID 0000.0001) %MON forcing_qnet_del2            =   3.2893993664200E-01
(PID.TID 0000.0001) %MON forcing_qsw_max              =   0.0000000000000E+00
(PID.TID 0000.0001) %MON forcing_qsw_min              =  -1.0742149422386E+02
(PID.TID 0000.0001) %MON forcing_qsw_mean             =  -1.8575254341794E+01
(PID.TID 0000.0001) %MON forcing_qsw_sd               =   2.7992236577039E+01
(PID.TID 0000.0001) %MON forcing_qsw_del2             =   2.1480603945841E-02
(PID.TID 0000.0001) %MON forcing_empmr_max            =   1.1436631903052E-03
(PID.TID 0000.0001) %MON forcing_empmr_min            =  -9.6368379890919E-02
(PID.TID 0000.0001) %MON forcing_empmr_mean           =  -6.5714633629401E-06
(PID.TID 0000.0001) %MON forcing_empmr_sd             =   3.8509812403371E-04
(PID.TID 0000.0001) %MON forcing_empmr_del2           =   4.1024040571598E-06
(PID.TID 0000.0001) %MON forcing_fu_max               =   7.0681360363961E-01
(PID.TID 0000.0001) %MON forcing_fu_min               =  -9.0988242626189E-01
(PID.TID 0000.0001) %MON forcing_fu_mean              =   2.8543059178988E-03
(PID.TID 0000.0001) %MON forcing_fu_sd                =   1.0020578708243E-01
(PID.TID 0000.0001) %MON forcing_fu_del2              =   1.4393960575835E-04
(PID.TID 0000.0001) %MON forcing_fv_max               =   8.4689196944236E-01
(PID.TID 0000.0001) %MON forcing_fv_min               =  -7.8498882055283E-01
(PID.TID 0000.0001) %MON forcing_fv_mean              =  -9.6575913388723E-03
(PID.TID 0000.0001) %MON forcing_fv_sd                =   1.0762115592035E-01
(PID.TID 0000.0001) %MON forcing_fv_del2              =   1.4459092692820E-04
(PID.TID 0000.0001) %MON trAdv_CFL_u_max              =   1.4778365480203E-02
(PID.TID 0000.0001) %MON trAdv_CFL_v_max              =   1.2082456614853E-02
(PID.TID 0000.0001) %MON trAdv_CFL_w_max              =   2.0416815105009E-02
(PID.TID 0000.0001) %MON advcfl_uvel_max              =   7.2038168702816E-03
(PID.TID 0000.0001) %MON advcfl_vvel_max              =   1.1759441571620E-02
(PID.TID 0000.0001) %MON advcfl_wvel_max              =   1.8485473426520E-02
(PID.TID 0000.0001) %MON advcfl_W_hf_max              =   1.8619863663639E-02
(PID.TID 0000.0001) %MON pe_b_mean                    =   5.2749857208078E-04
(PID.TID 0000.0001) %MON ke_max                       =   3.9777415108196E-01
(PID.TID 0000.0001) %MON ke_mean                      =   3.5098856743216E-04
(PID.TID 0000.0001) %MON ke_vol                       =   1.3349978529483E+18
(PID.TID 0000.0001) %MON vort_r_min                   =  -1.2768911688307E-05
(PID.TID 0000.0001) %MON vort_r_max                   =   1.8159784595623E-05
(PID.TID 0000.0001) %MON vort_a_mean                  =  -1.9727864647440E-05
(PID.TID 0000.0001) %MON vort_a_sd                    =   7.4543001761943E-05
(PID.TID 0000.0001) %MON vort_p_mean                  =  -2.1760533745265E-05
(PID.TID 0000.0001) %MON vort_p_sd                    =   9.7245651352145E-05
(PID.TID 0000.0001) %MON surfExpan_theta_mean         =   2.0039280364450E-09
(PID.TID 0000.0001) %MON surfExpan_salt_mean          =   3.7458744801365E-08
(PID.TID 0000.0001) // =======================================================
(PID.TID 0000.0001) // End MONITOR dynamic field statistics
(PID.TID 0000.0001) // =======================================================
(PID.TID 0000.0001) // =======================================================
(PID.TID 0000.0001) // Begin MONITOR SEAICE statistics
(PID.TID 0000.0001) // =======================================================
(PID.TID 0000.0001) %MON seaice_tsnumber              =                   656
(PID.TID 0000.0001) %MON seaice_time_sec              =   5.9040000000000E+05
(PID.TID 0000.0001) %MON seaice_uice_max              =   4.0000000000000E-01
(PID.TID 0000.0001) %MON seaice_uice_min              =  -4.0000000000000E-01
(PID.TID 0000.0001) %MON seaice_uice_mean             =  -8.3054598624025E-03
(PID.TID 0000.0001) %MON seaice_uice_sd               =   1.9802383574176E-01
(PID.TID 0000.0001) %MON seaice_uice_del2             =   2.2931571122150E-04
(PID.TID 0000.0001) %MON seaice_vice_max              =   4.0000000000000E-01
(PID.TID 0000.0001) %MON seaice_vice_min              =  -4.0000000000000E-01
(PID.TID 0000.0001) %MON seaice_vice_mean             =  -2.1960776359499E-02
(PID.TID 0000.0001) %MON seaice_vice_sd               =   2.1302038025672E-01
(PID.TID 0000.0001) %MON seaice_vice_del2             =   2.3932563818061E-04
(PID.TID 0000.0001) %MON seaice_area_max              =   1.0000000000000E+00
(PID.TID 0000.0001) %MON seaice_area_min              =   0.0000000000000E+00
(PID.TID 0000.0001) %MON seaice_area_mean             =   6.6235992163520E-02
(PID.TID 0000.0001) %MON seaice_area_sd               =   2.3048956978197E-01
(PID.TID 0000.0001) %MON seaice_area_del2             =   3.9818995355748E-04
(PID.TID 0000.0001) %MON seaice_heff_max              =   2.5025258962531E+01
(PID.TID 0000.0001) %MON seaice_heff_min              =   0.0000000000000E+00
(PID.TID 0000.0001) %MON seaice_heff_mean             =   2.1304537254149E-01
(PID.TID 0000.0001) %MON seaice_heff_sd               =   1.0669772900705E+00
(PID.TID 0000.0001) %MON seaice_heff_del2             =   3.8505044160539E-03
(PID.TID 0000.0001) %MON seaice_hsnow_max             =   8.2657632631599E+00
(PID.TID 0000.0001) %MON seaice_hsnow_min             =   0.0000000000000E+00
(PID.TID 0000.0001) %MON seaice_hsnow_mean            =   2.4098662406240E-02
(PID.TID 0000.0001) %MON seaice_hsnow_sd              =   1.5632831389579E-01
(PID.TID 0000.0001) %MON seaice_hsnow_del2            =   1.2409734351219E-03
(PID.TID 0000.0001) // =======================================================
(PID.TID 0000.0001) // End MONITOR SEAICE statistics
(PID.TID 0000.0001) // =======================================================
 Computing Diagnostic #     86  oceQnet      Counter:       4   Parms: SM      U1      
 Computing Diagnostic #     87  oceQsw       Counter:       4   Parms: SM      U1      
 Computing Diagnostic #     84  oceFWflx     Counter:       4   Parms: SM      U1      
 Computing Diagnostic #     85  oceSflux     Counter:       4   Parms: SM      U1      
 Computing Diagnostic #     80  oceTAUX      Counter:       4   Parms: UU      U1      
           Vector  Mate for  oceTAUX      Diagnostic #     81  oceTAUY  exists 
 Computing Diagnostic #     81  oceTAUY      Counter:       4   Parms: VV      U1      
           Vector  Mate for  oceTAUY      Diagnostic #     80  oceTAUX  exists 
 Computing Diagnostic #     26  THETA        Counter:       4   Parms: SMR     MR      
 Computing Diagnostic #     27  SALT         Counter:       4   Parms: SMR     MR      
 Computing Diagnostic #     30  UVEL         Counter:       4   Parms: UUR     MR      
           Vector  Mate for  UVEL         Diagnostic #     31  VVEL     exists 
 Computing Diagnostic #     31  VVEL         Counter:       4   Parms: VVR     MR      
           Vector  Mate for  VVEL         Diagnostic #     30  UVEL     exists 
 Computing Diagnostic #    214  SIarea       Counter:       4   Parms: SM      M1      
 Computing Diagnostic #    217  SIheff       Counter:       4   Parms: SM      M1      
 Computing Diagnostic #    219  SIhsnow      Counter:       4   Parms: SM      M1      
 Computing Diagnostic #     83  sIceLoad     Counter:       4   Parms: SM      U1      
 Computing Diagnostic #    223  SIuice       Counter:       4   Parms: UU      M1      
           Vector  Mate for  SIuice       Diagnostic #    224  SIvice   exists 
 Computing Diagnostic #    224  SIvice       Counter:       4   Parms: VV      M1      
           Vector  Mate for  SIvice       Diagnostic #    223  SIuice   exists 
 Computing Diagnostic #    225  SItaux       Counter:       4   Parms: UU      U1      
           Vector  Mate for  SItaux       Diagnostic #    226  SItauy   exists 
 Computing Diagnostic #    226  SItauy       Counter:       4   Parms: VV      U1      
           Vector  Mate for  SItauy       Diagnostic #    225  SItaux   exists 
 Computing Diagnostic #    285  SIareaN      Counter:       4   Parms: SM      MX      
 Computing Diagnostic #    284  SIheffN      Counter:       4   Parms: SM      MX      
 Computing Diagnostic #    286  SIhsnowN     Counter:       4   Parms: SM      MX      
 Compute Stats, Diag. #    214  SIarea    vol(   0 ): 3.580E+14  Parms: SM      M1      
 Compute Stats, Diag. #    217  SIheff    vol(   0 ): 3.580E+14  Parms: SM      M1      
 Compute Stats, Diag. #    219  SIhsnow   vol(   0 ): 3.580E+14  Parms: SM      M1      
 Compute Stats, Diag. #     83  sIceLoad  vol(   0 ): 3.580E+14  Parms: SM      U1      
 Compute Stats, Diag. #    223  SIuice    vol(   0 ): 3.513E+14  Parms: UU      M1      
 Compute Stats, Diag. #    224  SIvice    vol(   0 ): 3.508E+14  Parms: VV      M1      
 Compute Stats, Diag. #    225  SItaux    vol(   0 ): 3.513E+14  Parms: UU      U1      
 Compute Stats, Diag. #    226  SItauy    vol(   0 ): 3.508E+14  Parms: VV      U1      
 cg2d: Sum(rhs),rhsMax =   1.75493022893387E+00  2.92797262197237E-01
 Compute Stats, Diag. #    214  SIarea    vol(   0 ): 3.580E+14  Parms: SM      M1      
 Compute Stats, Diag. #    217  SIheff    vol(   0 ): 3.580E+14  Parms: SM      M1      
 Compute Stats, Diag. #    219  SIhsnow   vol(   0 ): 3.580E+14  Parms: SM      M1      
 Compute Stats, Diag. #     83  sIceLoad  vol(   0 ): 3.580E+14  Parms: SM      U1      
 Compute Stats, Diag. #    223  SIuice    vol(   0 ): 3.513E+14  Parms: UU      M1      
 Compute Stats, Diag. #    224  SIvice    vol(   0 ): 3.508E+14  Parms: VV      M1      
 Compute Stats, Diag. #    225  SItaux    vol(   0 ): 3.513E+14  Parms: UU      U1      
 Compute Stats, Diag. #    226  SItauy    vol(   0 ): 3.508E+14  Parms: VV      U1      
 cg2d: Sum(rhs),rhsMax =   1.57846951841520E+00  2.92841933863125E-01
 Compute Stats, Diag. #    214  SIarea    vol(   0 ): 3.580E+14  Parms: SM      M1      
 Compute Stats, Diag. #    217  SIheff    vol(   0 ): 3.580E+14  Parms: SM      M1      
 Compute Stats, Diag. #    219  SIhsnow   vol(   0 ): 3.580E+14  Parms: SM      M1      
 Compute Stats, Diag. #     83  sIceLoad  vol(   0 ): 3.580E+14  Parms: SM      U1      
 Compute Stats, Diag. #    223  SIuice    vol(   0 ): 3.513E+14  Parms: UU      M1      
 Compute Stats, Diag. #    224  SIvice    vol(   0 ): 3.508E+14  Parms: VV      M1      
 Compute Stats, Diag. #    225  SItaux    vol(   0 ): 3.513E+14  Parms: UU      U1      
 Compute Stats, Diag. #    226  SItauy    vol(   0 ): 3.508E+14  Parms: VV      U1      
 cg2d: Sum(rhs),rhsMax =   1.39730773373078E+00  2.92888513210345E-01
 Compute Stats, Diag. #    214  SIarea    vol(   0 ): 3.580E+14  Parms: SM      M1      
 Compute Stats, Diag. #    217  SIheff    vol(   0 ): 3.580E+14  Parms: SM      M1      
 Compute Stats, Diag. #    219  SIhsnow   vol(   0 ): 3.580E+14  Parms: SM      M1      
 Compute Stats, Diag. #     83  sIceLoad  vol(   0 ): 3.580E+14  Parms: SM      U1      
 Compute Stats, Diag. #    223  SIuice    vol(   0 ): 3.513E+14  Parms: UU      M1      
 Compute Stats, Diag. #    224  SIvice    vol(   0 ): 3.508E+14  Parms: VV      M1      
 Compute Stats, Diag. #    225  SItaux    vol(   0 ): 3.513E+14  Parms: UU      U1      
 Compute Stats, Diag. #    226  SItauy    vol(   0 ): 3.508E+14  Parms: VV      U1      
 cg2d: Sum(rhs),rhsMax =   1.21472085883605E+00  2.92936050651305E-01
 Computing Diagnostic #     86  oceQnet      Counter:       4   Parms: SM      U1      
 Computing Diagnostic #     87  oceQsw       Counter:       4   Parms: SM      U1      
 Computing Diagnostic #     84  oceFWflx     Counter:       4   Parms: SM      U1      
 Computing Diagnostic #     85  oceSflux     Counter:       4   Parms: SM      U1      
 Computing Diagnostic #     80  oceTAUX      Counter:       4   Parms: UU      U1      
           Vector  Mate for  oceTAUX      Diagnostic #     81  oceTAUY  exists 
 Computing Diagnostic #     81  oceTAUY      Counter:       4   Parms: VV      U1      
           Vector  Mate for  oceTAUY      Diagnostic #     80  oceTAUX  exists 
 Computing Diagnostic #     26  THETA        Counter:       4   Parms: SMR     MR      
 Computing Diagnostic #     27  SALT         Counter:       4   Parms: SMR     MR      
 Computing Diagnostic #     30  UVEL         Counter:       4   Parms: UUR     MR      
           Vector  Mate for  UVEL         Diagnostic #     31  VVEL     exists 
 Computing Diagnostic #     31  VVEL         Counter:       4   Parms: VVR     MR      
           Vector  Mate for  VVEL         Diagnostic #     30  UVEL     exists 
 Computing Diagnostic #    214  SIarea       Counter:       4   Parms: SM      M1      
 Computing Diagnostic #    217  SIheff       Counter:       4   Parms: SM      M1      
 Computing Diagnostic #    219  SIhsnow      Counter:       4   Parms: SM      M1      
 Computing Diagnostic #     83  sIceLoad     Counter:       4   Parms: SM      U1      
 Computing Diagnostic #    223  SIuice       Counter:       4   Parms: UU      M1      
           Vector  Mate for  SIuice       Diagnostic #    224  SIvice   exists 
 Computing Diagnostic #    224  SIvice       Counter:       4   Parms: VV      M1      
           Vector  Mate for  SIvice       Diagnostic #    223  SIuice   exists 
 Computing Diagnostic #    225  SItaux       Counter:       4   Parms: UU      U1      
           Vector  Mate for  SItaux       Diagnostic #    226  SItauy   exists 
 Computing Diagnostic #    226  SItauy       Counter:       4   Parms: VV      U1      
           Vector  Mate for  SItauy       Diagnostic #    225  SItaux   exists 
 Computing Diagnostic #    285  SIareaN      Counter:       4   Parms: SM      MX      
 Computing Diagnostic #    284  SIheffN      Counter:       4   Parms: SM      MX      
 Computing Diagnostic #    286  SIhsnowN     Counter:       4   Parms: SM      MX      
 Compute Stats, Diag. #    214  SIarea    vol(   0 ): 3.580E+14  Parms: SM      M1      
 Compute Stats, Diag. #    217  SIheff    vol(   0 ): 3.580E+14  Parms: SM      M1      
 Compute Stats, Diag. #    219  SIhsnow   vol(   0 ): 3.580E+14  Parms: SM      M1      
 Compute Stats, Diag. #     83  sIceLoad  vol(   0 ): 3.580E+14  Parms: SM      U1      
 Compute Stats, Diag. #    223  SIuice    vol(   0 ): 3.513E+14  Parms: UU      M1      
 Compute Stats, Diag. #    224  SIvice    vol(   0 ): 3.508E+14  Parms: VV      M1      
 Compute Stats, Diag. #    225  SItaux    vol(   0 ): 3.513E+14  Parms: UU      U1      
 Compute Stats, Diag. #    226  SItauy    vol(   0 ): 3.508E+14  Parms: VV      U1      
 cg2d: Sum(rhs),rhsMax =   1.04413021817150E+00  2.92983954514207E-01
 Compute Stats, Diag. #    214  SIarea    vol(   0 ): 3.580E+14  Parms: SM      M1      
 Compute Stats, Diag. #    217  SIheff    vol(   0 ): 3.580E+14  Parms: SM      M1      
 Compute Stats, Diag. #    219  SIhsnow   vol(   0 ): 3.580E+14  Parms: SM      M1      
 Compute Stats, Diag. #     83  sIceLoad  vol(   0 ): 3.580E+14  Parms: SM      U1      
 Compute Stats, Diag. #    223  SIuice    vol(   0 ): 3.513E+14  Parms: UU      M1      
 Compute Stats, Diag. #    224  SIvice    vol(   0 ): 3.508E+14  Parms: VV      M1      
 Compute Stats, Diag. #    225  SItaux    vol(   0 ): 3.513E+14  Parms: UU      U1      
 Compute Stats, Diag. #    226  SItauy    vol(   0 ): 3.508E+14  Parms: VV      U1      
 cg2d: Sum(rhs),rhsMax =   8.72974323365227E-01  2.93031347437585E-01
 Compute Stats, Diag. #    214  SIarea    vol(   0 ): 3.580E+14  Parms: SM      M1      
 Compute Stats, Diag. #    217  SIheff    vol(   0 ): 3.580E+14  Parms: SM      M1      
 Compute Stats, Diag. #    219  SIhsnow   vol(   0 ): 3.580E+14  Parms: SM      M1      
 Compute Stats, Diag. #     83  sIceLoad  vol(   0 ): 3.580E+14  Parms: SM      U1      
 Compute Stats, Diag. #    223  SIuice    vol(   0 ): 3.513E+14  Parms: UU      M1      
 Compute Stats, Diag. #    224  SIvice    vol(   0 ): 3.508E+14  Parms: VV      M1      
 Compute Stats, Diag. #    225  SItaux    vol(   0 ): 3.513E+14  Parms: UU      U1      
 Compute Stats, Diag. #    226  SItauy    vol(   0 ): 3.508E+14  Parms: VV      U1      
 cg2d: Sum(rhs),rhsMax =   7.00762264503837E-01  2.93077791618410E-01
 Compute Stats, Diag. #    214  SIarea    vol(   0 ): 3.580E+14  Parms: SM      M1      
 Compute Stats, Diag. #    217  SIheff    vol(   0 ): 3.580E+14  Parms: SM      M1      
 Compute Stats, Diag. #    219  SIhsnow   vol(   0 ): 3.580E+14  Parms: SM      M1      
 Compute Stats, Diag. #     83  sIceLoad  vol(   0 ): 3.580E+14  Parms: SM      U1      
 Compute Stats, Diag. #    223  SIuice    vol(   0 ): 3.513E+14  Parms: UU      M1      
 Compute Stats, Diag. #    224  SIvice    vol(   0 ): 3.508E+14  Parms: VV      M1      
 Compute Stats, Diag. #    225  SItaux    vol(   0 ): 3.513E+14  Parms: UU      U1      
 Compute Stats, Diag. #    226  SItauy    vol(   0 ): 3.508E+14  Parms: VV      U1      
 cg2d: Sum(rhs),rhsMax =   5.34447890397260E-01  2.93122710213722E-01
(PID.TID 0000.0001)      cg2d_init_res =   4.44112019832782E-02
(PID.TID 0000.0001)      cg2d_iters(min,last) =      -1      24
(PID.TID 0000.0001)      cg2d_last_res =   2.76629247208126E-05
(PID.TID 0000.0001) // =======================================================
(PID.TID 0000.0001) // Begin MONITOR dynamic field statistics
(PID.TID 0000.0001) // =======================================================
(PID.TID 0000.0001) %MON time_tsnumber                =                   664
(PID.TID 0000.0001) %MON time_secondsf                =   5.9760000000000E+05
(PID.TID 0000.0001) %MON dynstat_eta_max              =   1.0253517502397E+00
(PID.TID 0000.0001) %MON dynstat_eta_min              =  -1.8533304927008E+00
(PID.TID 0000.0001) %MON dynstat_eta_mean             =  -1.6906293686570E-05
(PID.TID 0000.0001) %MON dynstat_eta_sd               =   6.3348301996948E-01
(PID.TID 0000.0001) %MON dynstat_eta_del2             =   5.3778483181663E-05
(PID.TID 0000.0001) %MON dynstat_uvel_max             =   7.3325496816068E-01
(PID.TID 0000.0001) %MON dynstat_uvel_min             =  -6.2618556439001E-01
(PID.TID 0000.0001) %MON dynstat_uvel_mean            =   1.4095361992226E-03
(PID.TID 0000.0001) %MON dynstat_uvel_sd              =   1.8584132112970E-02
(PID.TID 0000.0001) %MON dynstat_uvel_del2            =   7.4027049780090E-06
(PID.TID 0000.0001) %MON dynstat_vvel_max             =   6.4044219873979E-01
(PID.TID 0000.0001) %MON dynstat_vvel_min             =  -8.8932279684727E-01
(PID.TID 0000.0001) %MON dynstat_vvel_mean            =   1.1511097645737E-03
(PID.TID 0000.0001) %MON dynstat_vvel_sd              =   1.9481145670031E-02
(PID.TID 0000.0001) %MON dynstat_vvel_del2            =   7.4554723955643E-06
(PID.TID 0000.0001) %MON dynstat_wvel_max             =   3.3885077047904E-04
(PID.TID 0000.0001) %MON dynstat_wvel_min             =  -8.4199120979683E-04
(PID.TID 0000.0001) %MON dynstat_wvel_mean            =  -2.8994668068732E-09
(PID.TID 0000.0001) %MON dynstat_wvel_sd              =   1.9584995988799E-05
(PID.TID 0000.0001) %MON dynstat_wvel_del2            =   1.4573015299687E-08
(PID.TID 0000.0001) %MON dynstat_theta_max            =   3.2173918372745E+01
(PID.TID 0000.0001) %MON dynstat_theta_min            =  -2.0401256392775E+00
(PID.TID 0000.0001) %MON dynstat_theta_mean           =   3.5902885656732E+00
(PID.TID 0000.0001) %MON dynstat_theta_sd             =   4.4365198523687E+00
(PID.TID 0000.0001) %MON dynstat_theta_del2           =   9.2862672955560E-05
(PID.TID 0000.0001) %MON dynstat_salt_max             =   4.0711556783893E+01
(PID.TID 0000.0001) %MON dynstat_salt_min             =   7.5224185078605E+00
(PID.TID 0000.0001) %MON dynstat_salt_mean            =   3.4725571627834E+01
(PID.TID 0000.0001) %MON dynstat_salt_sd              =   3.7704590928377E-01
(PID.TID 0000.0001) %MON dynstat_salt_del2            =   3.6077060706617E-05
(PID.TID 0000.0001) %MON dynstat_sst_max              =   3.2156940327933E+01
(PID.TID 0000.0001) %MON dynstat_sst_min              =  -1.8158842875592E+00
(PID.TID 0000.0001) %MON dynstat_sst_mean             =   1.8478340103127E+01
(PID.TID 0000.0001) %MON dynstat_sst_sd               =   1.0235622000948E+01
(PID.TID 0000.0001) %MON dynstat_sst_del2             =   8.0205918569124E-04
(PID.TID 0000.0001) %MON dynstat_sss_max              =   3.9104918526350E+01
(PID.TID 0000.0001) %MON dynstat_sss_min              =   7.5224185078605E+00
(PID.TID 0000.0001) %MON dynstat_sss_mean             =   3.4700164842460E+01
(PID.TID 0000.0001) %MON dynstat_sss_sd               =   1.1674492446750E+00
(PID.TID 0000.0001) %MON dynstat_sss_del2             =   1.1284517761628E-03
(PID.TID 0000.0001) %MON forcing_qnet_max             =   9.2010616762488E+02
(PID.TID 0000.0001) %MON forcing_qnet_min             =  -8.2084284786230E+02
(PID.TID 0000.0001) %MON forcing_qnet_mean            =  -1.1365096332958E+01
(PID.TID 0000.0001) %MON forcing_qnet_sd              =   1.9230546033814E+02
(PID.TID 0000.0001) %MON forcing_qnet_del2            =   3.4155998981424E-01
(PID.TID 0000.0001) %MON forcing_qsw_max              =   0.0000000000000E+00
(PID.TID 0000.0001) %MON forcing_qsw_min              =  -1.0759121667987E+02
(PID.TID 0000.0001) %MON forcing_qsw_mean             =  -1.9944054494959E+01
(PID.TID 0000.0001) %MON forcing_qsw_sd               =   2.9093033075664E+01
(PID.TID 0000.0001) %MON forcing_qsw_del2             =   2.0541428090498E-02
(PID.TID 0000.0001) %MON forcing_empmr_max            =   1.0540093062446E-03
(PID.TID 0000.0001) %MON forcing_empmr_min            =  -9.8500922322273E-02
(PID.TID 0000.0001) %MON forcing_empmr_mean           =  -6.0151393508467E-06
(PID.TID 0000.0001) %MON forcing_empmr_sd             =   3.9767056784522E-04
(PID.TID 0000.0001) %MON forcing_empmr_del2           =   4.2173486692097E-06
(PID.TID 0000.0001) %MON forcing_fu_max               =   6.6487246751785E-01
(PID.TID 0000.0001) %MON forcing_fu_min               =  -8.7376347184181E-01
(PID.TID 0000.0001) %MON forcing_fu_mean              =   2.9920421512526E-03
(PID.TID 0000.0001) %MON forcing_fu_sd                =   9.8465271673844E-02
(PID.TID 0000.0001) %MON forcing_fu_del2              =   1.4133730586995E-04
(PID.TID 0000.0001) %MON forcing_fv_max               =   7.7208802103996E-01
(PID.TID 0000.0001) %MON forcing_fv_min               =  -7.7880489826202E-01
(PID.TID 0000.0001) %MON forcing_fv_mean              =  -1.0125351283065E-02
(PID.TID 0000.0001) %MON forcing_fv_sd                =   1.0660156606364E-01
(PID.TID 0000.0001) %MON forcing_fv_del2              =   1.4162819009131E-04
(PID.TID 0000.0001) %MON trAdv_CFL_u_max              =   1.2167669914856E-02
(PID.TID 0000.0001) %MON trAdv_CFL_v_max              =   1.2244230130838E-02
(PID.TID 0000.0001) %MON trAdv_CFL_w_max              =   2.0171588424754E-02
(PID.TID 0000.0001) %MON advcfl_uvel_max              =   7.2186630848141E-03
(PID.TID 0000.0001) %MON advcfl_vvel_max              =   1.1368428096104E-02
(PID.TID 0000.0001) %MON advcfl_wvel_max              =   1.8202620148284E-02
(PID.TID 0000.0001) %MON advcfl_W_hf_max              =   1.8749733371354E-02
(PID.TID 0000.0001) %MON pe_b_mean                    =   5.2787152797715E-04
(PID.TID 0000.0001) %MON ke_max                       =   3.9712654815212E-01
(PID.TID 0000.0001) %MON ke_mean                      =   3.5113209805790E-04
(PID.TID 0000.0001) %MON ke_vol                       =   1.3349978690031E+18
(PID.TID 0000.0001) %MON vort_r_min                   =  -1.2361806566776E-05
(PID.TID 0000.0001) %MON vort_r_max                   =   1.7527699159882E-05
(PID.TID 0000.0001) %MON vort_a_mean                  =  -1.9727864647440E-05
(PID.TID 0000.0001) %MON vort_a_sd                    =   7.4542995769054E-05
(PID.TID 0000.0001) %MON vort_p_mean                  =  -2.1760533511287E-05
(PID.TID 0000.0001) %MON vort_p_sd                    =   9.7245542455287E-05
(PID.TID 0000.0001) %MON surfExpan_theta_mean         =   6.8796252533147E-08
(PID.TID 0000.0001) %MON surfExpan_salt_mean          =   5.2420131033327E-08
(PID.TID 0000.0001) // =======================================================
(PID.TID 0000.0001) // End MONITOR dynamic field statistics
(PID.TID 0000.0001) // =======================================================
(PID.TID 0000.0001) // =======================================================
(PID.TID 0000.0001) // Begin MONITOR SEAICE statistics
(PID.TID 0000.0001) // =======================================================
(PID.TID 0000.0001) %MON seaice_tsnumber              =                   664
(PID.TID 0000.0001) %MON seaice_time_sec              =   5.9760000000000E+05
(PID.TID 0000.0001) %MON seaice_uice_max              =   4.0000000000000E-01
(PID.TID 0000.0001) %MON seaice_uice_min              =  -4.0000000000000E-01
(PID.TID 0000.0001) %MON seaice_uice_mean             =  -8.3054598624025E-03
(PID.TID 0000.0001) %MON seaice_uice_sd               =   1.9802383574176E-01
(PID.TID 0000.0001) %MON seaice_uice_del2             =   2.2931571122150E-04
(PID.TID 0000.0001) %MON seaice_vice_max              =   4.0000000000000E-01
(PID.TID 0000.0001) %MON seaice_vice_min              =  -4.0000000000000E-01
(PID.TID 0000.0001) %MON seaice_vice_mean             =  -2.1960776359499E-02
(PID.TID 0000.0001) %MON seaice_vice_sd               =   2.1302038025672E-01
(PID.TID 0000.0001) %MON seaice_vice_del2             =   2.3932563818061E-04
(PID.TID 0000.0001) %MON seaice_area_max              =   1.0000000000000E+00
(PID.TID 0000.0001) %MON seaice_area_min              =   0.0000000000000E+00
(PID.TID 0000.0001) %MON seaice_area_mean             =   6.6208959688107E-02
(PID.TID 0000.0001) %MON seaice_area_sd               =   2.3043822743367E-01
(PID.TID 0000.0001) %MON seaice_area_del2             =   3.9773750328379E-04
(PID.TID 0000.0001) %MON seaice_heff_max              =   2.5023111584829E+01
(PID.TID 0000.0001) %MON seaice_heff_min              =   0.0000000000000E+00
(PID.TID 0000.0001) %MON seaice_heff_mean             =   2.1301165402142E-01
(PID.TID 0000.0001) %MON seaice_heff_sd               =   1.0669420188477E+00
(PID.TID 0000.0001) %MON seaice_heff_del2             =   3.8497703678083E-03
(PID.TID 0000.0001) %MON seaice_hsnow_max             =   8.2650592157734E+00
(PID.TID 0000.0001) %MON seaice_hsnow_min             =   0.0000000000000E+00
(PID.TID 0000.0001) %MON seaice_hsnow_mean            =   2.4089251187116E-02
(PID.TID 0000.0001) %MON seaice_hsnow_sd              =   1.5631099048919E-01
(PID.TID 0000.0001) %MON seaice_hsnow_del2            =   1.2408516179650E-03
(PID.TID 0000.0001) // =======================================================
(PID.TID 0000.0001) // End MONITOR SEAICE statistics
(PID.TID 0000.0001) // =======================================================
 Computing Diagnostic #     86  oceQnet      Counter:       4   Parms: SM      U1      
 Computing Diagnostic #     87  oceQsw       Counter:       4   Parms: SM      U1      
 Computing Diagnostic #     84  oceFWflx     Counter:       4   Parms: SM      U1      
 Computing Diagnostic #     85  oceSflux     Counter:       4   Parms: SM      U1      
 Computing Diagnostic #     80  oceTAUX      Counter:       4   Parms: UU      U1      
           Vector  Mate for  oceTAUX      Diagnostic #     81  oceTAUY  exists 
 Computing Diagnostic #     81  oceTAUY      Counter:       4   Parms: VV      U1      
           Vector  Mate for  oceTAUY      Diagnostic #     80  oceTAUX  exists 
 Computing Diagnostic #     26  THETA        Counter:       4   Parms: SMR     MR      
 Computing Diagnostic #     27  SALT         Counter:       4   Parms: SMR     MR      
 Computing Diagnostic #     30  UVEL         Counter:       4   Parms: UUR     MR      
           Vector  Mate for  UVEL         Diagnostic #     31  VVEL     exists 
 Computing Diagnostic #     31  VVEL         Counter:       4   Parms: VVR     MR      
           Vector  Mate for  VVEL         Diagnostic #     30  UVEL     exists 
 Computing Diagnostic #    214  SIarea       Counter:       4   Parms: SM      M1      
 Computing Diagnostic #    217  SIheff       Counter:       4   Parms: SM      M1      
 Computing Diagnostic #    219  SIhsnow      Counter:       4   Parms: SM      M1      
 Computing Diagnostic #     83  sIceLoad     Counter:       4   Parms: SM      U1      
 Computing Diagnostic #    223  SIuice       Counter:       4   Parms: UU      M1      
           Vector  Mate for  SIuice       Diagnostic #    224  SIvice   exists 
 Computing Diagnostic #    224  SIvice       Counter:       4   Parms: VV      M1      
           Vector  Mate for  SIvice       Diagnostic #    223  SIuice   exists 
 Computing Diagnostic #    225  SItaux       Counter:       4   Parms: UU      U1      
           Vector  Mate for  SItaux       Diagnostic #    226  SItauy   exists 
 Computing Diagnostic #    226  SItauy       Counter:       4   Parms: VV      U1      
           Vector  Mate for  SItauy       Diagnostic #    225  SItaux   exists 
 Computing Diagnostic #    285  SIareaN      Counter:       4   Parms: SM      MX      
 Computing Diagnostic #    284  SIheffN      Counter:       4   Parms: SM      MX      
 Computing Diagnostic #    286  SIhsnowN     Counter:       4   Parms: SM      MX      
 Compute Stats, Diag. #    214  SIarea    vol(   0 ): 3.580E+14  Parms: SM      M1      
 Compute Stats, Diag. #    217  SIheff    vol(   0 ): 3.580E+14  Parms: SM      M1      
 Compute Stats, Diag. #    219  SIhsnow   vol(   0 ): 3.580E+14  Parms: SM      M1      
 Compute Stats, Diag. #     83  sIceLoad  vol(   0 ): 3.580E+14  Parms: SM      U1      
 Compute Stats, Diag. #    223  SIuice    vol(   0 ): 3.513E+14  Parms: UU      M1      
 Compute Stats, Diag. #    224  SIvice    vol(   0 ): 3.508E+14  Parms: VV      M1      
 Compute Stats, Diag. #    225  SItaux    vol(   0 ): 3.513E+14  Parms: UU      U1      
 Compute Stats, Diag. #    226  SItauy    vol(   0 ): 3.508E+14  Parms: VV      U1      
 cg2d: Sum(rhs),rhsMax =   3.63055276952693E-01  2.93165985178011E-01
 Compute Stats, Diag. #    214  SIarea    vol(   0 ): 3.580E+14  Parms: SM      M1      
 Compute Stats, Diag. #    217  SIheff    vol(   0 ): 3.580E+14  Parms: SM      M1      
 Compute Stats, Diag. #    219  SIhsnow   vol(   0 ): 3.580E+14  Parms: SM      M1      
 Compute Stats, Diag. #     83  sIceLoad  vol(   0 ): 3.580E+14  Parms: SM      U1      
 Compute Stats, Diag. #    223  SIuice    vol(   0 ): 3.513E+14  Parms: UU      M1      
 Compute Stats, Diag. #    224  SIvice    vol(   0 ): 3.508E+14  Parms: VV      M1      
 Compute Stats, Diag. #    225  SItaux    vol(   0 ): 3.513E+14  Parms: UU      U1      
 Compute Stats, Diag. #    226  SItauy    vol(   0 ): 3.508E+14  Parms: VV      U1      
 cg2d: Sum(rhs),rhsMax =   1.98517204263339E-01  2.93206876447599E-01
 Compute Stats, Diag. #    214  SIarea    vol(   0 ): 3.580E+14  Parms: SM      M1      
 Compute Stats, Diag. #    217  SIheff    vol(   0 ): 3.580E+14  Parms: SM      M1      
 Compute Stats, Diag. #    219  SIhsnow   vol(   0 ): 3.580E+14  Parms: SM      M1      
 Compute Stats, Diag. #     83  sIceLoad  vol(   0 ): 3.580E+14  Parms: SM      U1      
 Compute Stats, Diag. #    223  SIuice    vol(   0 ): 3.513E+14  Parms: UU      M1      
 Compute Stats, Diag. #    224  SIvice    vol(   0 ): 3.508E+14  Parms: VV      M1      
 Compute Stats, Diag. #    225  SItaux    vol(   0 ): 3.513E+14  Parms: UU      U1      
 Compute Stats, Diag. #    226  SItauy    vol(   0 ): 3.508E+14  Parms: VV      U1      
 cg2d: Sum(rhs),rhsMax =   4.28265141334379E-02  2.93244691475497E-01
 Compute Stats, Diag. #    214  SIarea    vol(   0 ): 3.580E+14  Parms: SM      M1      
 Compute Stats, Diag. #    217  SIheff    vol(   0 ): 3.580E+14  Parms: SM      M1      
 Compute Stats, Diag. #    219  SIhsnow   vol(   0 ): 3.580E+14  Parms: SM      M1      
 Compute Stats, Diag. #     83  sIceLoad  vol(   0 ): 3.580E+14  Parms: SM      U1      
 Compute Stats, Diag. #    223  SIuice    vol(   0 ): 3.513E+14  Parms: UU      M1      
 Compute Stats, Diag. #    224  SIvice    vol(   0 ): 3.508E+14  Parms: VV      M1      
 Compute Stats, Diag. #    225  SItaux    vol(   0 ): 3.513E+14  Parms: UU      U1      
 Compute Stats, Diag. #    226  SItauy    vol(   0 ): 3.508E+14  Parms: VV      U1      
 cg2d: Sum(rhs),rhsMax =  -1.01543310847092E-01  2.93279003481413E-01
 Computing Diagnostic #     86  oceQnet      Counter:       4   Parms: SM      U1      
 Computing Diagnostic #     87  oceQsw       Counter:       4   Parms: SM      U1      
 Computing Diagnostic #     84  oceFWflx     Counter:       4   Parms: SM      U1      
 Computing Diagnostic #     85  oceSflux     Counter:       4   Parms: SM      U1      
 Computing Diagnostic #     80  oceTAUX      Counter:       4   Parms: UU      U1      
           Vector  Mate for  oceTAUX      Diagnostic #     81  oceTAUY  exists 
 Computing Diagnostic #     81  oceTAUY      Counter:       4   Parms: VV      U1      
           Vector  Mate for  oceTAUY      Diagnostic #     80  oceTAUX  exists 
 Computing Diagnostic #     26  THETA        Counter:       4   Parms: SMR     MR      
 Computing Diagnostic #     27  SALT         Counter:       4   Parms: SMR     MR      
 Computing Diagnostic #     30  UVEL         Counter:       4   Parms: UUR     MR      
           Vector  Mate for  UVEL         Diagnostic #     31  VVEL     exists 
 Computing Diagnostic #     31  VVEL         Counter:       4   Parms: VVR     MR      
           Vector  Mate for  VVEL         Diagnostic #     30  UVEL     exists 
 Computing Diagnostic #    214  SIarea       Counter:       4   Parms: SM      M1      
 Computing Diagnostic #    217  SIheff       Counter:       4   Parms: SM      M1      
 Computing Diagnostic #    219  SIhsnow      Counter:       4   Parms: SM      M1      
 Computing Diagnostic #     83  sIceLoad     Counter:       4   Parms: SM      U1      
 Computing Diagnostic #    223  SIuice       Counter:       4   Parms: UU      M1      
           Vector  Mate for  SIuice       Diagnostic #    224  SIvice   exists 
 Computing Diagnostic #    224  SIvice       Counter:       4   Parms: VV      M1      
           Vector  Mate for  SIvice       Diagnostic #    223  SIuice   exists 
 Computing Diagnostic #    225  SItaux       Counter:       4   Parms: UU      U1      
           Vector  Mate for  SItaux       Diagnostic #    226  SItauy   exists 
 Computing Diagnostic #    226  SItauy       Counter:       4   Parms: VV      U1      
           Vector  Mate for  SItauy       Diagnostic #    225  SItaux   exists 
 Computing Diagnostic #    285  SIareaN      Counter:       4   Parms: SM      MX      
 Computing Diagnostic #    284  SIheffN      Counter:       4   Parms: SM      MX      
 Computing Diagnostic #    286  SIhsnowN     Counter:       4   Parms: SM      MX      
 Compute Stats, Diag. #    214  SIarea    vol(   0 ): 3.580E+14  Parms: SM      M1      
 Compute Stats, Diag. #    217  SIheff    vol(   0 ): 3.580E+14  Parms: SM      M1      
 Compute Stats, Diag. #    219  SIhsnow   vol(   0 ): 3.580E+14  Parms: SM      M1      
 Compute Stats, Diag. #     83  sIceLoad  vol(   0 ): 3.580E+14  Parms: SM      U1      
 Compute Stats, Diag. #    223  SIuice    vol(   0 ): 3.513E+14  Parms: UU      M1      
 Compute Stats, Diag. #    224  SIvice    vol(   0 ): 3.508E+14  Parms: VV      M1      
 Compute Stats, Diag. #    225  SItaux    vol(   0 ): 3.513E+14  Parms: UU      U1      
 Compute Stats, Diag. #    226  SItauy    vol(   0 ): 3.508E+14  Parms: VV      U1      
 cg2d: Sum(rhs),rhsMax =  -2.40024775604368E-01  2.93308982920225E-01
 Compute Stats, Diag. #    214  SIarea    vol(   0 ): 3.580E+14  Parms: SM      M1      
 Compute Stats, Diag. #    217  SIheff    vol(   0 ): 3.580E+14  Parms: SM      M1      
 Compute Stats, Diag. #    219  SIhsnow   vol(   0 ): 3.580E+14  Parms: SM      M1      
 Compute Stats, Diag. #     83  sIceLoad  vol(   0 ): 3.580E+14  Parms: SM      U1      
 Compute Stats, Diag. #    223  SIuice    vol(   0 ): 3.513E+14  Parms: UU      M1      
 Compute Stats, Diag. #    224  SIvice    vol(   0 ): 3.508E+14  Parms: VV      M1      
 Compute Stats, Diag. #    225  SItaux    vol(   0 ): 3.513E+14  Parms: UU      U1      
 Compute Stats, Diag. #    226  SItauy    vol(   0 ): 3.508E+14  Parms: VV      U1      
 cg2d: Sum(rhs),rhsMax =  -3.71524901969536E-01  2.93334380114931E-01
 Compute Stats, Diag. #    214  SIarea    vol(   0 ): 3.580E+14  Parms: SM      M1      
 Compute Stats, Diag. #    217  SIheff    vol(   0 ): 3.580E+14  Parms: SM      M1      
 Compute Stats, Diag. #    219  SIhsnow   vol(   0 ): 3.580E+14  Parms: SM      M1      
 Compute Stats, Diag. #     83  sIceLoad  vol(   0 ): 3.580E+14  Parms: SM      U1      
 Compute Stats, Diag. #    223  SIuice    vol(   0 ): 3.513E+14  Parms: UU      M1      
 Compute Stats, Diag. #    224  SIvice    vol(   0 ): 3.508E+14  Parms: VV      M1      
 Compute Stats, Diag. #    225  SItaux    vol(   0 ): 3.513E+14  Parms: UU      U1      
 Compute Stats, Diag. #    226  SItauy    vol(   0 ): 3.508E+14  Parms: VV      U1      
 cg2d: Sum(rhs),rhsMax =  -4.96909726222214E-01  2.93355223598011E-01
 Compute Stats, Diag. #    214  SIarea    vol(   0 ): 3.580E+14  Parms: SM      M1      
 Compute Stats, Diag. #    217  SIheff    vol(   0 ): 3.580E+14  Parms: SM      M1      
 Compute Stats, Diag. #    219  SIhsnow   vol(   0 ): 3.580E+14  Parms: SM      M1      
 Compute Stats, Diag. #     83  sIceLoad  vol(   0 ): 3.580E+14  Parms: SM      U1      
 Compute Stats, Diag. #    223  SIuice    vol(   0 ): 3.513E+14  Parms: UU      M1      
 Compute Stats, Diag. #    224  SIvice    vol(   0 ): 3.508E+14  Parms: VV      M1      
 Compute Stats, Diag. #    225  SItaux    vol(   0 ): 3.513E+14  Parms: UU      U1      
 Compute Stats, Diag. #    226  SItauy    vol(   0 ): 3.508E+14  Parms: VV      U1      
 cg2d: Sum(rhs),rhsMax =  -6.15693252423753E-01  2.93371095869801E-01
(PID.TID 0000.0001)      cg2d_init_res =   4.51005563447454E-02
(PID.TID 0000.0001)      cg2d_iters(min,last) =      -1      24
(PID.TID 0000.0001)      cg2d_last_res =   2.62828640486785E-05
(PID.TID 0000.0001) // =======================================================
(PID.TID 0000.0001) // Begin MONITOR dynamic field statistics
(PID.TID 0000.0001) // =======================================================
(PID.TID 0000.0001) %MON time_tsnumber                =                   672
(PID.TID 0000.0001) %MON time_secondsf                =   6.0480000000000E+05
(PID.TID 0000.0001) %MON dynstat_eta_max              =   1.0269782148945E+00
(PID.TID 0000.0001) %MON dynstat_eta_min              =  -1.8530378455597E+00
(PID.TID 0000.0001) %MON dynstat_eta_mean             =   1.9476343967992E-05
(PID.TID 0000.0001) %MON dynstat_eta_sd               =   6.3375880753538E-01
(PID.TID 0000.0001) %MON dynstat_eta_del2             =   5.3448919801695E-05
(PID.TID 0000.0001) %MON dynstat_uvel_max             =   7.3427969851533E-01
(PID.TID 0000.0001) %MON dynstat_uvel_min             =  -6.3366033898190E-01
(PID.TID 0000.0001) %MON dynstat_uvel_mean            =   1.4029270068656E-03
(PID.TID 0000.0001) %MON dynstat_uvel_sd              =   1.8599060403204E-02
(PID.TID 0000.0001) %MON dynstat_uvel_del2            =   7.3748355794082E-06
(PID.TID 0000.0001) %MON dynstat_vvel_max             =   6.1859383814578E-01
(PID.TID 0000.0001) %MON dynstat_vvel_min             =  -8.8669330977011E-01
(PID.TID 0000.0001) %MON dynstat_vvel_mean            =   1.1431888997180E-03
(PID.TID 0000.0001) %MON dynstat_vvel_sd              =   1.9468676722778E-02
(PID.TID 0000.0001) %MON dynstat_vvel_del2            =   7.4306228713360E-06
(PID.TID 0000.0001) %MON dynstat_wvel_max             =   3.5968517844914E-04
(PID.TID 0000.0001) %MON dynstat_wvel_min             =  -8.4982009213222E-04
(PID.TID 0000.0001) %MON dynstat_wvel_mean            =  -8.1021764468964E-10
(PID.TID 0000.0001) %MON dynstat_wvel_sd              =   1.9792822205815E-05
(PID.TID 0000.0001) %MON dynstat_wvel_del2            =   1.4570799368536E-08
(PID.TID 0000.0001) %MON dynstat_theta_max            =   3.2163227273414E+01
(PID.TID 0000.0001) %MON dynstat_theta_min            =  -2.0401102992730E+00
(PID.TID 0000.0001) %MON dynstat_theta_mean           =   3.5902977432957E+00
(PID.TID 0000.0001) %MON dynstat_theta_sd             =   4.4365775021804E+00
(PID.TID 0000.0001) %MON dynstat_theta_del2           =   9.2772492566909E-05
(PID.TID 0000.0001) %MON dynstat_salt_max             =   4.0711556511538E+01
(PID.TID 0000.0001) %MON dynstat_salt_min             =   7.1592503702778E+00
(PID.TID 0000.0001) %MON dynstat_salt_mean            =   3.4725571334539E+01
(PID.TID 0000.0001) %MON dynstat_salt_sd              =   3.7704836789994E-01
(PID.TID 0000.0001) %MON dynstat_salt_del2            =   3.6025346492178E-05
(PID.TID 0000.0001) %MON dynstat_sst_max              =   3.2140160468678E+01
(PID.TID 0000.0001) %MON dynstat_sst_min              =  -1.8151936329379E+00
(PID.TID 0000.0001) %MON dynstat_sst_mean             =   1.8481156062404E+01
(PID.TID 0000.0001) %MON dynstat_sst_sd               =   1.0237758769359E+01
(PID.TID 0000.0001) %MON dynstat_sst_del2             =   8.0140253850752E-04
(PID.TID 0000.0001) %MON dynstat_sss_max              =   3.9104693111505E+01
(PID.TID 0000.0001) %MON dynstat_sss_min              =   7.1592503702778E+00
(PID.TID 0000.0001) %MON dynstat_sss_mean             =   3.4700148880268E+01
(PID.TID 0000.0001) %MON dynstat_sss_sd               =   1.1679573509025E+00
(PID.TID 0000.0001) %MON dynstat_sss_del2             =   1.1257399548780E-03
(PID.TID 0000.0001) %MON forcing_qnet_max             =   1.3487088623047E+03
(PID.TID 0000.0001) %MON forcing_qnet_min             =  -9.4508917236328E+02
(PID.TID 0000.0001) %MON forcing_qnet_mean            =  -2.6996576738666E+01
(PID.TID 0000.0001) %MON forcing_qnet_sd              =   2.0586809105453E+02
(PID.TID 0000.0001) %MON forcing_qnet_del2            =   3.4004313584632E-01
(PID.TID 0000.0001) %MON forcing_qsw_max              =   0.0000000000000E+00
(PID.TID 0000.0001) %MON forcing_qsw_min              =  -1.1007301679920E+02
(PID.TID 0000.0001) %MON forcing_qsw_mean             =  -2.1890236179329E+01
(PID.TID 0000.0001) %MON forcing_qsw_sd               =   3.0591059785668E+01
(PID.TID 0000.0001) %MON forcing_qsw_del2             =   1.9658768641002E-02
(PID.TID 0000.0001) %MON forcing_empmr_max            =   1.0475736344233E-03
(PID.TID 0000.0001) %MON forcing_empmr_min            =  -8.4372103214264E-02
(PID.TID 0000.0001) %MON forcing_empmr_mean           =  -4.2960776333476E-06
(PID.TID 0000.0001) %MON forcing_empmr_sd             =   3.6093290101324E-04
(PID.TID 0000.0001) %MON forcing_empmr_del2           =   3.8207084762959E-06
(PID.TID 0000.0001) %MON forcing_fu_max               =   5.3892803192139E-01
(PID.TID 0000.0001) %MON forcing_fu_min               =  -8.3423072099686E-01
(PID.TID 0000.0001) %MON forcing_fu_mean              =   3.0708573845160E-03
(PID.TID 0000.0001) %MON forcing_fu_sd                =   9.6477552071994E-02
(PID.TID 0000.0001) %MON forcing_fu_del2              =   1.3852493096110E-04
(PID.TID 0000.0001) %MON forcing_fv_max               =   7.4160504341125E-01
(PID.TID 0000.0001) %MON forcing_fv_min               =  -8.1220623850822E-01
(PID.TID 0000.0001) %MON forcing_fv_mean              =  -1.0034629673524E-02
(PID.TID 0000.0001) %MON forcing_fv_sd                =   1.0522393199261E-01
(PID.TID 0000.0001) %MON forcing_fv_del2              =   1.3801213163088E-04
(PID.TID 0000.0001) %MON trAdv_CFL_u_max              =   1.1424574283756E-02
(PID.TID 0000.0001) %MON trAdv_CFL_v_max              =   1.2039714564291E-02
(PID.TID 0000.0001) %MON trAdv_CFL_w_max              =   2.0159780982645E-02
(PID.TID 0000.0001) %MON advcfl_uvel_max              =   7.2560349693363E-03
(PID.TID 0000.0001) %MON advcfl_vvel_max              =   1.0980599940933E-02
(PID.TID 0000.0001) %MON advcfl_wvel_max              =   1.7978656444958E-02
(PID.TID 0000.0001) %MON advcfl_W_hf_max              =   1.8850451405555E-02
(PID.TID 0000.0001) %MON pe_b_mean                    =   5.2833124174099E-04
(PID.TID 0000.0001) %MON ke_max                       =   3.9556265341058E-01
(PID.TID 0000.0001) %MON ke_mean                      =   3.5114776583336E-04
(PID.TID 0000.0001) %MON ke_vol                       =   1.3349978825669E+18
(PID.TID 0000.0001) %MON vort_r_min                   =  -1.1896369122746E-05
(PID.TID 0000.0001) %MON vort_r_max                   =   1.6878882059219E-05
(PID.TID 0000.0001) %MON vort_a_mean                  =  -1.9727864647440E-05
(PID.TID 0000.0001) %MON vort_a_sd                    =   7.4542989914635E-05
(PID.TID 0000.0001) %MON vort_p_mean                  =  -2.1760533326715E-05
(PID.TID 0000.0001) %MON vort_p_sd                    =   9.7245458801645E-05
(PID.TID 0000.0001) %MON surfExpan_theta_mean         =   1.2628218820689E-07
(PID.TID 0000.0001) %MON surfExpan_salt_mean          =   5.6980511247297E-08
(PID.TID 0000.0001) // =======================================================
(PID.TID 0000.0001) // End MONITOR dynamic field statistics
(PID.TID 0000.0001) // =======================================================
(PID.TID 0000.0001) // =======================================================
(PID.TID 0000.0001) // Begin MONITOR SEAICE statistics
(PID.TID 0000.0001) // =======================================================
(PID.TID 0000.0001) %MON seaice_tsnumber              =                   672
(PID.TID 0000.0001) %MON seaice_time_sec              =   6.0480000000000E+05
(PID.TID 0000.0001) %MON seaice_uice_max              =   4.0000000000000E-01
(PID.TID 0000.0001) %MON seaice_uice_min              =  -4.0000000000000E-01
(PID.TID 0000.0001) %MON seaice_uice_mean             =  -8.3054598624025E-03
(PID.TID 0000.0001) %MON seaice_uice_sd               =   1.9802383574176E-01
(PID.TID 0000.0001) %MON seaice_uice_del2             =   2.2931571122150E-04
(PID.TID 0000.0001) %MON seaice_vice_max              =   4.0000000000000E-01
(PID.TID 0000.0001) %MON seaice_vice_min              =  -4.0000000000000E-01
(PID.TID 0000.0001) %MON seaice_vice_mean             =  -2.1960776359499E-02
(PID.TID 0000.0001) %MON seaice_vice_sd               =   2.1302038025672E-01
(PID.TID 0000.0001) %MON seaice_vice_del2             =   2.3932563818061E-04
(PID.TID 0000.0001) %MON seaice_area_max              =   1.0000000000000E+00
(PID.TID 0000.0001) %MON seaice_area_min              =   0.0000000000000E+00
(PID.TID 0000.0001) %MON seaice_area_mean             =   6.6184027229263E-02
(PID.TID 0000.0001) %MON seaice_area_sd               =   2.3039043041245E-01
(PID.TID 0000.0001) %MON seaice_area_del2             =   3.9734140595788E-04
(PID.TID 0000.0001) %MON seaice_heff_max              =   2.5021015767707E+01
(PID.TID 0000.0001) %MON seaice_heff_min              =   0.0000000000000E+00
(PID.TID 0000.0001) %MON seaice_heff_mean             =   2.1297870610178E-01
(PID.TID 0000.0001) %MON seaice_heff_sd               =   1.0669071630024E+00
(PID.TID 0000.0001) %MON seaice_heff_del2             =   3.8490445188598E-03
(PID.TID 0000.0001) %MON seaice_hsnow_max             =   8.2643712243298E+00
(PID.TID 0000.0001) %MON seaice_hsnow_min             =   0.0000000000000E+00
(PID.TID 0000.0001) %MON seaice_hsnow_mean            =   2.4086519123693E-02
(PID.TID 0000.0001) %MON seaice_hsnow_sd              =   1.5630087034554E-01
(PID.TID 0000.0001) %MON seaice_hsnow_del2            =   1.2407270327705E-03
(PID.TID 0000.0001) // =======================================================
(PID.TID 0000.0001) // End MONITOR SEAICE statistics
(PID.TID 0000.0001) // =======================================================
 Computing Diagnostic #     86  oceQnet      Counter:       4   Parms: SM      U1      
 Computing Diagnostic #     87  oceQsw       Counter:       4   Parms: SM      U1      
 Computing Diagnostic #     84  oceFWflx     Counter:       4   Parms: SM      U1      
 Computing Diagnostic #     85  oceSflux     Counter:       4   Parms: SM      U1      
 Computing Diagnostic #     80  oceTAUX      Counter:       4   Parms: UU      U1      
           Vector  Mate for  oceTAUX      Diagnostic #     81  oceTAUY  exists 
 Computing Diagnostic #     81  oceTAUY      Counter:       4   Parms: VV      U1      
           Vector  Mate for  oceTAUY      Diagnostic #     80  oceTAUX  exists 
 Computing Diagnostic #     26  THETA        Counter:       4   Parms: SMR     MR      
 Computing Diagnostic #     27  SALT         Counter:       4   Parms: SMR     MR      
 Computing Diagnostic #     30  UVEL         Counter:       4   Parms: UUR     MR      
           Vector  Mate for  UVEL         Diagnostic #     31  VVEL     exists 
 Computing Diagnostic #     31  VVEL         Counter:       4   Parms: VVR     MR      
           Vector  Mate for  VVEL         Diagnostic #     30  UVEL     exists 
 Computing Diagnostic #    214  SIarea       Counter:       4   Parms: SM      M1      
 Computing Diagnostic #    217  SIheff       Counter:       4   Parms: SM      M1      
 Computing Diagnostic #    219  SIhsnow      Counter:       4   Parms: SM      M1      
 Computing Diagnostic #     83  sIceLoad     Counter:       4   Parms: SM      U1      
 Computing Diagnostic #    223  SIuice       Counter:       4   Parms: UU      M1      
           Vector  Mate for  SIuice       Diagnostic #    224  SIvice   exists 
 Computing Diagnostic #    224  SIvice       Counter:       4   Parms: VV      M1      
           Vector  Mate for  SIvice       Diagnostic #    223  SIuice   exists 
 Computing Diagnostic #    225  SItaux       Counter:       4   Parms: UU      U1      
           Vector  Mate for  SItaux       Diagnostic #    226  SItauy   exists 
 Computing Diagnostic #    226  SItauy       Counter:       4   Parms: VV      U1      
           Vector  Mate for  SItauy       Diagnostic #    225  SItaux   exists 
 Computing Diagnostic #    285  SIareaN      Counter:       4   Parms: SM      MX      
 Computing Diagnostic #    284  SIheffN      Counter:       4   Parms: SM      MX      
 Computing Diagnostic #    286  SIhsnowN     Counter:       4   Parms: SM      MX      
 Compute Stats, Diag. #    214  SIarea    vol(   0 ): 3.580E+14  Parms: SM      M1      
 Compute Stats, Diag. #    217  SIheff    vol(   0 ): 3.580E+14  Parms: SM      M1      
 Compute Stats, Diag. #    219  SIhsnow   vol(   0 ): 3.580E+14  Parms: SM      M1      
 Compute Stats, Diag. #     83  sIceLoad  vol(   0 ): 3.580E+14  Parms: SM      U1      
 Compute Stats, Diag. #    223  SIuice    vol(   0 ): 3.513E+14  Parms: UU      M1      
 Compute Stats, Diag. #    224  SIvice    vol(   0 ): 3.508E+14  Parms: VV      M1      
 Compute Stats, Diag. #    225  SItaux    vol(   0 ): 3.513E+14  Parms: UU      U1      
 Compute Stats, Diag. #    226  SItauy    vol(   0 ): 3.508E+14  Parms: VV      U1      
 cg2d: Sum(rhs),rhsMax =  -7.29993089892147E-01  2.93381842492381E-01
 Compute Stats, Diag. #    214  SIarea    vol(   0 ): 3.580E+14  Parms: SM      M1      
 Compute Stats, Diag. #    217  SIheff    vol(   0 ): 3.580E+14  Parms: SM      M1      
 Compute Stats, Diag. #    219  SIhsnow   vol(   0 ): 3.580E+14  Parms: SM      M1      
 Compute Stats, Diag. #     83  sIceLoad  vol(   0 ): 3.580E+14  Parms: SM      U1      
 Compute Stats, Diag. #    223  SIuice    vol(   0 ): 3.513E+14  Parms: UU      M1      
 Compute Stats, Diag. #    224  SIvice    vol(   0 ): 3.508E+14  Parms: VV      M1      
 Compute Stats, Diag. #    225  SItaux    vol(   0 ): 3.513E+14  Parms: UU      U1      
 Compute Stats, Diag. #    226  SItauy    vol(   0 ): 3.508E+14  Parms: VV      U1      
 cg2d: Sum(rhs),rhsMax =  -8.28347900333412E-01  2.93387665980398E-01
 Compute Stats, Diag. #    214  SIarea    vol(   0 ): 3.580E+14  Parms: SM      M1      
 Compute Stats, Diag. #    217  SIheff    vol(   0 ): 3.580E+14  Parms: SM      M1      
 Compute Stats, Diag. #    219  SIhsnow   vol(   0 ): 3.580E+14  Parms: SM      M1      
 Compute Stats, Diag. #     83  sIceLoad  vol(   0 ): 3.580E+14  Parms: SM      U1      
 Compute Stats, Diag. #    223  SIuice    vol(   0 ): 3.513E+14  Parms: UU      M1      
 Compute Stats, Diag. #    224  SIvice    vol(   0 ): 3.508E+14  Parms: VV      M1      
 Compute Stats, Diag. #    225  SItaux    vol(   0 ): 3.513E+14  Parms: UU      U1      
 Compute Stats, Diag. #    226  SItauy    vol(   0 ): 3.508E+14  Parms: VV      U1      
 cg2d: Sum(rhs),rhsMax =  -9.22314225813338E-01  2.93388418053795E-01
 Compute Stats, Diag. #    214  SIarea    vol(   0 ): 3.580E+14  Parms: SM      M1      
 Compute Stats, Diag. #    217  SIheff    vol(   0 ): 3.580E+14  Parms: SM      M1      
 Compute Stats, Diag. #    219  SIhsnow   vol(   0 ): 3.580E+14  Parms: SM      M1      
 Compute Stats, Diag. #     83  sIceLoad  vol(   0 ): 3.580E+14  Parms: SM      U1      
 Compute Stats, Diag. #    223  SIuice    vol(   0 ): 3.513E+14  Parms: UU      M1      
 Compute Stats, Diag. #    224  SIvice    vol(   0 ): 3.508E+14  Parms: VV      M1      
 Compute Stats, Diag. #    225  SItaux    vol(   0 ): 3.513E+14  Parms: UU      U1      
 Compute Stats, Diag. #    226  SItauy    vol(   0 ): 3.508E+14  Parms: VV      U1      
 cg2d: Sum(rhs),rhsMax =  -1.00006669058263E+00  2.93384266407931E-01
 Computing Diagnostic #     86  oceQnet      Counter:       4   Parms: SM      U1      
 Computing Diagnostic #     87  oceQsw       Counter:       4   Parms: SM      U1      
 Computing Diagnostic #     84  oceFWflx     Counter:       4   Parms: SM      U1      
 Computing Diagnostic #     85  oceSflux     Counter:       4   Parms: SM      U1      
 Computing Diagnostic #     80  oceTAUX      Counter:       4   Parms: UU      U1      
           Vector  Mate for  oceTAUX      Diagnostic #     81  oceTAUY  exists 
 Computing Diagnostic #     81  oceTAUY      Counter:       4   Parms: VV      U1      
           Vector  Mate for  oceTAUY      Diagnostic #     80  oceTAUX  exists 
 Computing Diagnostic #     26  THETA        Counter:       4   Parms: SMR     MR      
 Computing Diagnostic #     27  SALT         Counter:       4   Parms: SMR     MR      
 Computing Diagnostic #     30  UVEL         Counter:       4   Parms: UUR     MR      
           Vector  Mate for  UVEL         Diagnostic #     31  VVEL     exists 
 Computing Diagnostic #     31  VVEL         Counter:       4   Parms: VVR     MR      
           Vector  Mate for  VVEL         Diagnostic #     30  UVEL     exists 
 Computing Diagnostic #    214  SIarea       Counter:       4   Parms: SM      M1      
 Computing Diagnostic #    217  SIheff       Counter:       4   Parms: SM      M1      
 Computing Diagnostic #    219  SIhsnow      Counter:       4   Parms: SM      M1      
 Computing Diagnostic #     83  sIceLoad     Counter:       4   Parms: SM      U1      
 Computing Diagnostic #    223  SIuice       Counter:       4   Parms: UU      M1      
           Vector  Mate for  SIuice       Diagnostic #    224  SIvice   exists 
 Computing Diagnostic #    224  SIvice       Counter:       4   Parms: VV      M1      
           Vector  Mate for  SIvice       Diagnostic #    223  SIuice   exists 
 Computing Diagnostic #    225  SItaux       Counter:       4   Parms: UU      U1      
           Vector  Mate for  SItaux       Diagnostic #    226  SItauy   exists 
 Computing Diagnostic #    226  SItauy       Counter:       4   Parms: VV      U1      
           Vector  Mate for  SItauy       Diagnostic #    225  SItaux   exists 
 Computing Diagnostic #    285  SIareaN      Counter:       4   Parms: SM      MX      
 Computing Diagnostic #    284  SIheffN      Counter:       4   Parms: SM      MX      
 Computing Diagnostic #    286  SIhsnowN     Counter:       4   Parms: SM      MX      
 Compute Stats, Diag. #    214  SIarea    vol(   0 ): 3.580E+14  Parms: SM      M1      
 Compute Stats, Diag. #    217  SIheff    vol(   0 ): 3.580E+14  Parms: SM      M1      
 Compute Stats, Diag. #    219  SIhsnow   vol(   0 ): 3.580E+14  Parms: SM      M1      
 Compute Stats, Diag. #     83  sIceLoad  vol(   0 ): 3.580E+14  Parms: SM      U1      
 Compute Stats, Diag. #    223  SIuice    vol(   0 ): 3.513E+14  Parms: UU      M1      
 Compute Stats, Diag. #    224  SIvice    vol(   0 ): 3.508E+14  Parms: VV      M1      
 Compute Stats, Diag. #    225  SItaux    vol(   0 ): 3.513E+14  Parms: UU      U1      
 Compute Stats, Diag. #    226  SItauy    vol(   0 ): 3.508E+14  Parms: VV      U1      
 cg2d: Sum(rhs),rhsMax =  -1.07287643180138E+00  2.93375375140294E-01
 Compute Stats, Diag. #    214  SIarea    vol(   0 ): 3.580E+14  Parms: SM      M1      
 Compute Stats, Diag. #    217  SIheff    vol(   0 ): 3.580E+14  Parms: SM      M1      
 Compute Stats, Diag. #    219  SIhsnow   vol(   0 ): 3.580E+14  Parms: SM      M1      
 Compute Stats, Diag. #     83  sIceLoad  vol(   0 ): 3.580E+14  Parms: SM      U1      
 Compute Stats, Diag. #    223  SIuice    vol(   0 ): 3.513E+14  Parms: UU      M1      
 Compute Stats, Diag. #    224  SIvice    vol(   0 ): 3.508E+14  Parms: VV      M1      
 Compute Stats, Diag. #    225  SItaux    vol(   0 ): 3.513E+14  Parms: UU      U1      
 Compute Stats, Diag. #    226  SItauy    vol(   0 ): 3.508E+14  Parms: VV      U1      
 cg2d: Sum(rhs),rhsMax =  -1.13557549691136E+00  2.93361902399516E-01
 Compute Stats, Diag. #    214  SIarea    vol(   0 ): 3.580E+14  Parms: SM      M1      
 Compute Stats, Diag. #    217  SIheff    vol(   0 ): 3.580E+14  Parms: SM      M1      
 Compute Stats, Diag. #    219  SIhsnow   vol(   0 ): 3.580E+14  Parms: SM      M1      
 Compute Stats, Diag. #     83  sIceLoad  vol(   0 ): 3.580E+14  Parms: SM      U1      
 Compute Stats, Diag. #    223  SIuice    vol(   0 ): 3.513E+14  Parms: UU      M1      
 Compute Stats, Diag. #    224  SIvice    vol(   0 ): 3.508E+14  Parms: VV      M1      
 Compute Stats, Diag. #    225  SItaux    vol(   0 ): 3.513E+14  Parms: UU      U1      
 Compute Stats, Diag. #    226  SItauy    vol(   0 ): 3.508E+14  Parms: VV      U1      
 cg2d: Sum(rhs),rhsMax =  -1.20206970005242E+00  2.93343827972986E-01
 Compute Stats, Diag. #    214  SIarea    vol(   0 ): 3.580E+14  Parms: SM      M1      
 Compute Stats, Diag. #    217  SIheff    vol(   0 ): 3.580E+14  Parms: SM      M1      
 Compute Stats, Diag. #    219  SIhsnow   vol(   0 ): 3.580E+14  Parms: SM      M1      
 Compute Stats, Diag. #     83  sIceLoad  vol(   0 ): 3.580E+14  Parms: SM      U1      
 Compute Stats, Diag. #    223  SIuice    vol(   0 ): 3.513E+14  Parms: UU      M1      
 Compute Stats, Diag. #    224  SIvice    vol(   0 ): 3.508E+14  Parms: VV      M1      
 Compute Stats, Diag. #    225  SItaux    vol(   0 ): 3.513E+14  Parms: UU      U1      
 Compute Stats, Diag. #    226  SItauy    vol(   0 ): 3.508E+14  Parms: VV      U1      
 cg2d: Sum(rhs),rhsMax =  -1.26819181441462E+00  2.93321712796727E-01
(PID.TID 0000.0001)      cg2d_init_res =   4.54873794018449E-02
(PID.TID 0000.0001)      cg2d_iters(min,last) =      -1      24
(PID.TID 0000.0001)      cg2d_last_res =   2.70910767377790E-05
(PID.TID 0000.0001) // =======================================================
(PID.TID 0000.0001) // Begin MONITOR dynamic field statistics
(PID.TID 0000.0001) // =======================================================
(PID.TID 0000.0001) %MON time_tsnumber                =                   680
(PID.TID 0000.0001) %MON time_secondsf                =   6.1200000000000E+05
(PID.TID 0000.0001) %MON dynstat_eta_max              =   1.0292350524889E+00
(PID.TID 0000.0001) %MON dynstat_eta_min              =  -1.8542564438206E+00
(PID.TID 0000.0001) %MON dynstat_eta_mean             =   4.0116957426029E-05
(PID.TID 0000.0001) %MON dynstat_eta_sd               =   6.3405497545670E-01
(PID.TID 0000.0001) %MON dynstat_eta_del2             =   5.3184863914510E-05
(PID.TID 0000.0001) %MON dynstat_uvel_max             =   7.3496442441198E-01
(PID.TID 0000.0001) %MON dynstat_uvel_min             =  -6.4304405744625E-01
(PID.TID 0000.0001) %MON dynstat_uvel_mean            =   1.3950765724562E-03
(PID.TID 0000.0001) %MON dynstat_uvel_sd              =   1.8608355953428E-02
(PID.TID 0000.0001) %MON dynstat_uvel_del2            =   7.3426688581461E-06
(PID.TID 0000.0001) %MON dynstat_vvel_max             =   5.9476370553100E-01
(PID.TID 0000.0001) %MON dynstat_vvel_min             =  -8.8376315131354E-01
(PID.TID 0000.0001) %MON dynstat_vvel_mean            =   1.1357125808830E-03
(PID.TID 0000.0001) %MON dynstat_vvel_sd              =   1.9457361470926E-02
(PID.TID 0000.0001) %MON dynstat_vvel_del2            =   7.3978743607547E-06
(PID.TID 0000.0001) %MON dynstat_wvel_max             =   3.7360757822674E-04
(PID.TID 0000.0001) %MON dynstat_wvel_min             =  -8.5389643379872E-04
(PID.TID 0000.0001) %MON dynstat_wvel_mean            =   2.6112080432421E-09
(PID.TID 0000.0001) %MON dynstat_wvel_sd              =   1.9926616530369E-05
(PID.TID 0000.0001) %MON dynstat_wvel_del2            =   1.4547661324037E-08
(PID.TID 0000.0001) %MON dynstat_theta_max            =   3.2147206319629E+01
(PID.TID 0000.0001) %MON dynstat_theta_min            =  -2.0400933499411E+00
(PID.TID 0000.0001) %MON dynstat_theta_mean           =   3.5903137983675E+00
(PID.TID 0000.0001) %MON dynstat_theta_sd             =   4.4366677249350E+00
(PID.TID 0000.0001) %MON dynstat_theta_del2           =   9.2687190438353E-05
(PID.TID 0000.0001) %MON dynstat_salt_max             =   4.0711556077991E+01
(PID.TID 0000.0001) %MON dynstat_salt_min             =   7.0711744728643E+00
(PID.TID 0000.0001) %MON dynstat_salt_mean            =   3.4725571176555E+01
(PID.TID 0000.0001) %MON dynstat_salt_sd              =   3.7704981663291E-01
(PID.TID 0000.0001) %MON dynstat_salt_del2            =   3.5903583549303E-05
(PID.TID 0000.0001) %MON dynstat_sst_max              =   3.2128872435914E+01
(PID.TID 0000.0001) %MON dynstat_sst_min              =  -1.8140460003490E+00
(PID.TID 0000.0001) %MON dynstat_sst_mean             =   1.8484942943214E+01
(PID.TID 0000.0001) %MON dynstat_sst_sd               =   1.0240538199271E+01
(PID.TID 0000.0001) %MON dynstat_sst_del2             =   8.0146087798067E-04
(PID.TID 0000.0001) %MON dynstat_sss_max              =   3.9104483354792E+01
(PID.TID 0000.0001) %MON dynstat_sss_min              =   7.0711744728643E+00
(PID.TID 0000.0001) %MON dynstat_sss_mean             =   3.4700161101973E+01
(PID.TID 0000.0001) %MON dynstat_sss_sd               =   1.1683435847738E+00
(PID.TID 0000.0001) %MON dynstat_sss_del2             =   1.1190684878915E-03
(PID.TID 0000.0001) %MON forcing_qnet_max             =   8.9932312011719E+02
(PID.TID 0000.0001) %MON forcing_qnet_min             =  -1.7800075683594E+03
(PID.TID 0000.0001) %MON forcing_qnet_mean            =  -3.6327959796802E+01
(PID.TID 0000.0001) %MON forcing_qnet_sd              =   2.0954418440836E+02
(PID.TID 0000.0001) %MON forcing_qnet_del2            =   3.5473099891973E-01
(PID.TID 0000.0001) %MON forcing_qsw_max              =   0.0000000000000E+00
(PID.TID 0000.0001) %MON forcing_qsw_min              =  -1.0957034312300E+02
(PID.TID 0000.0001) %MON forcing_qsw_mean             =  -2.2731892153906E+01
(PID.TID 0000.0001) %MON forcing_qsw_sd               =   3.0579580317964E+01
(PID.TID 0000.0001) %MON forcing_qsw_del2             =   2.0310736088653E-02
(PID.TID 0000.0001) %MON forcing_empmr_max            =   1.7365537350997E-03
(PID.TID 0000.0001) %MON forcing_empmr_min            =  -5.7170253247023E-02
(PID.TID 0000.0001) %MON forcing_empmr_mean           =  -2.3914573482323E-06
(PID.TID 0000.0001) %MON forcing_empmr_sd             =   2.7612368180674E-04
(PID.TID 0000.0001) %MON forcing_empmr_del2           =   2.8639290632705E-06
(PID.TID 0000.0001) %MON forcing_fu_max               =   5.7132202386856E-01
(PID.TID 0000.0001) %MON forcing_fu_min               =  -8.1917026638985E-01
(PID.TID 0000.0001) %MON forcing_fu_mean              =   2.9712950067375E-03
(PID.TID 0000.0001) %MON forcing_fu_sd                =   9.5199447815718E-02
(PID.TID 0000.0001) %MON forcing_fu_del2              =   1.3557844190347E-04
(PID.TID 0000.0001) %MON forcing_fv_max               =   7.0816838741302E-01
(PID.TID 0000.0001) %MON forcing_fv_min               =  -8.3913698792458E-01
(PID.TID 0000.0001) %MON forcing_fv_mean              =  -9.4200948886861E-03
(PID.TID 0000.0001) %MON forcing_fv_sd                =   1.0459439122009E-01
(PID.TID 0000.0001) %MON forcing_fv_del2              =   1.3583588815057E-04
(PID.TID 0000.0001) %MON trAdv_CFL_u_max              =   1.1075257157678E-02
(PID.TID 0000.0001) %MON trAdv_CFL_v_max              =   1.1659376274472E-02
(PID.TID 0000.0001) %MON trAdv_CFL_w_max              =   2.0384238409827E-02
(PID.TID 0000.0001) %MON advcfl_uvel_max              =   7.2749435800669E-03
(PID.TID 0000.0001) %MON advcfl_vvel_max              =   1.0557593540535E-02
(PID.TID 0000.0001) %MON advcfl_wvel_max              =   1.8033075285633E-02
(PID.TID 0000.0001) %MON advcfl_W_hf_max              =   1.8912601977832E-02
(PID.TID 0000.0001) %MON pe_b_mean                    =   5.2882515467999E-04
(PID.TID 0000.0001) %MON ke_max                       =   3.9382431338533E-01
(PID.TID 0000.0001) %MON ke_mean                      =   3.5108329218896E-04
(PID.TID 0000.0001) %MON ke_vol                       =   1.3349978905529E+18
(PID.TID 0000.0001) %MON vort_r_min                   =  -1.1570354344243E-05
(PID.TID 0000.0001) %MON vort_r_max                   =   1.6393153103300E-05
(PID.TID 0000.0001) %MON vort_a_mean                  =  -1.9727864647440E-05
(PID.TID 0000.0001) %MON vort_a_sd                    =   7.4542985431718E-05
(PID.TID 0000.0001) %MON vort_p_mean                  =  -2.1760533227885E-05
(PID.TID 0000.0001) %MON vort_p_sd                    =   9.7245424393901E-05
(PID.TID 0000.0001) %MON surfExpan_theta_mean         =   1.7723199726194E-07
(PID.TID 0000.0001) %MON surfExpan_salt_mean          =   4.5879438192491E-08
(PID.TID 0000.0001) // =======================================================
(PID.TID 0000.0001) // End MONITOR dynamic field statistics
(PID.TID 0000.0001) // =======================================================
(PID.TID 0000.0001) // =======================================================
(PID.TID 0000.0001) // Begin MONITOR SEAICE statistics
(PID.TID 0000.0001) // =======================================================
(PID.TID 0000.0001) %MON seaice_tsnumber              =                   680
(PID.TID 0000.0001) %MON seaice_time_sec              =   6.1200000000000E+05
(PID.TID 0000.0001) %MON seaice_uice_max              =   4.0000000000000E-01
(PID.TID 0000.0001) %MON seaice_uice_min              =  -4.0000000000000E-01
(PID.TID 0000.0001) %MON seaice_uice_mean             =  -8.3054598624025E-03
(PID.TID 0000.0001) %MON seaice_uice_sd               =   1.9802383574176E-01
(PID.TID 0000.0001) %MON seaice_uice_del2             =   2.2931571122150E-04
(PID.TID 0000.0001) %MON seaice_vice_max              =   4.0000000000000E-01
(PID.TID 0000.0001) %MON seaice_vice_min              =  -4.0000000000000E-01
(PID.TID 0000.0001) %MON seaice_vice_mean             =  -2.1960776359499E-02
(PID.TID 0000.0001) %MON seaice_vice_sd               =   2.1302038025672E-01
(PID.TID 0000.0001) %MON seaice_vice_del2             =   2.3932563818061E-04
(PID.TID 0000.0001) %MON seaice_area_max              =   1.0000000000000E+00
(PID.TID 0000.0001) %MON seaice_area_min              =   0.0000000000000E+00
(PID.TID 0000.0001) %MON seaice_area_mean             =   6.6158463488442E-02
(PID.TID 0000.0001) %MON seaice_area_sd               =   2.3034279822650E-01
(PID.TID 0000.0001) %MON seaice_area_del2             =   3.9694829198707E-04
(PID.TID 0000.0001) %MON seaice_heff_max              =   2.5018966246629E+01
(PID.TID 0000.0001) %MON seaice_heff_min              =   0.0000000000000E+00
(PID.TID 0000.0001) %MON seaice_heff_mean             =   2.1294612431423E-01
(PID.TID 0000.0001) %MON seaice_heff_sd               =   1.0668729148938E+00
(PID.TID 0000.0001) %MON seaice_heff_del2             =   3.8483249765924E-03
(PID.TID 0000.0001) %MON seaice_hsnow_max             =   8.2636976427748E+00
(PID.TID 0000.0001) %MON seaice_hsnow_min             =   0.0000000000000E+00
(PID.TID 0000.0001) %MON seaice_hsnow_mean            =   2.4084039419169E-02
(PID.TID 0000.0001) %MON seaice_hsnow_sd              =   1.5629164292941E-01
(PID.TID 0000.0001) %MON seaice_hsnow_del2            =   1.2406032993763E-03
(PID.TID 0000.0001) // =======================================================
(PID.TID 0000.0001) // End MONITOR SEAICE statistics
(PID.TID 0000.0001) // =======================================================
 Computing Diagnostic #     86  oceQnet      Counter:       4   Parms: SM      U1      
 Computing Diagnostic #     87  oceQsw       Counter:       4   Parms: SM      U1      
 Computing Diagnostic #     84  oceFWflx     Counter:       4   Parms: SM      U1      
 Computing Diagnostic #     85  oceSflux     Counter:       4   Parms: SM      U1      
 Computing Diagnostic #     80  oceTAUX      Counter:       4   Parms: UU      U1      
           Vector  Mate for  oceTAUX      Diagnostic #     81  oceTAUY  exists 
 Computing Diagnostic #     81  oceTAUY      Counter:       4   Parms: VV      U1      
           Vector  Mate for  oceTAUY      Diagnostic #     80  oceTAUX  exists 
 Computing Diagnostic #     26  THETA        Counter:       4   Parms: SMR     MR      
 Computing Diagnostic #     27  SALT         Counter:       4   Parms: SMR     MR      
 Computing Diagnostic #     30  UVEL         Counter:       4   Parms: UUR     MR      
           Vector  Mate for  UVEL         Diagnostic #     31  VVEL     exists 
 Computing Diagnostic #     31  VVEL         Counter:       4   Parms: VVR     MR      
           Vector  Mate for  VVEL         Diagnostic #     30  UVEL     exists 
 Computing Diagnostic #    214  SIarea       Counter:       4   Parms: SM      M1      
 Computing Diagnostic #    217  SIheff       Counter:       4   Parms: SM      M1      
 Computing Diagnostic #    219  SIhsnow      Counter:       4   Parms: SM      M1      
 Computing Diagnostic #     83  sIceLoad     Counter:       4   Parms: SM      U1      
 Computing Diagnostic #    223  SIuice       Counter:       4   Parms: UU      M1      
           Vector  Mate for  SIuice       Diagnostic #    224  SIvice   exists 
 Computing Diagnostic #    224  SIvice       Counter:       4   Parms: VV      M1      
           Vector  Mate for  SIvice       Diagnostic #    223  SIuice   exists 
 Computing Diagnostic #    225  SItaux       Counter:       4   Parms: UU      U1      
           Vector  Mate for  SItaux       Diagnostic #    226  SItauy   exists 
 Computing Diagnostic #    226  SItauy       Counter:       4   Parms: VV      U1      
           Vector  Mate for  SItauy       Diagnostic #    225  SItaux   exists 
 Computing Diagnostic #    285  SIareaN      Counter:       4   Parms: SM      MX      
 Computing Diagnostic #    284  SIheffN      Counter:       4   Parms: SM      MX      
 Computing Diagnostic #    286  SIhsnowN     Counter:       4   Parms: SM      MX      
 Compute Stats, Diag. #    214  SIarea    vol(   0 ): 3.580E+14  Parms: SM      M1      
 Compute Stats, Diag. #    217  SIheff    vol(   0 ): 3.580E+14  Parms: SM      M1      
 Compute Stats, Diag. #    219  SIhsnow   vol(   0 ): 3.580E+14  Parms: SM      M1      
 Compute Stats, Diag. #     83  sIceLoad  vol(   0 ): 3.580E+14  Parms: SM      U1      
 Compute Stats, Diag. #    223  SIuice    vol(   0 ): 3.513E+14  Parms: UU      M1      
 Compute Stats, Diag. #    224  SIvice    vol(   0 ): 3.508E+14  Parms: VV      M1      
 Compute Stats, Diag. #    225  SItaux    vol(   0 ): 3.513E+14  Parms: UU      U1      
 Compute Stats, Diag. #    226  SItauy    vol(   0 ): 3.508E+14  Parms: VV      U1      
 cg2d: Sum(rhs),rhsMax =  -1.32695476366204E+00  2.93296017176468E-01
 Compute Stats, Diag. #    214  SIarea    vol(   0 ): 3.580E+14  Parms: SM      M1      
 Compute Stats, Diag. #    217  SIheff    vol(   0 ): 3.580E+14  Parms: SM      M1      
 Compute Stats, Diag. #    219  SIhsnow   vol(   0 ): 3.580E+14  Parms: SM      M1      
 Compute Stats, Diag. #     83  sIceLoad  vol(   0 ): 3.580E+14  Parms: SM      U1      
 Compute Stats, Diag. #    223  SIuice    vol(   0 ): 3.513E+14  Parms: UU      M1      
 Compute Stats, Diag. #    224  SIvice    vol(   0 ): 3.508E+14  Parms: VV      M1      
 Compute Stats, Diag. #    225  SItaux    vol(   0 ): 3.513E+14  Parms: UU      U1      
 Compute Stats, Diag. #    226  SItauy    vol(   0 ): 3.508E+14  Parms: VV      U1      
 cg2d: Sum(rhs),rhsMax =  -1.37612572522308E+00  2.93267117264411E-01
 Compute Stats, Diag. #    214  SIarea    vol(   0 ): 3.580E+14  Parms: SM      M1      
 Compute Stats, Diag. #    217  SIheff    vol(   0 ): 3.580E+14  Parms: SM      M1      
 Compute Stats, Diag. #    219  SIhsnow   vol(   0 ): 3.580E+14  Parms: SM      M1      
 Compute Stats, Diag. #     83  sIceLoad  vol(   0 ): 3.580E+14  Parms: SM      U1      
 Compute Stats, Diag. #    223  SIuice    vol(   0 ): 3.513E+14  Parms: UU      M1      
 Compute Stats, Diag. #    224  SIvice    vol(   0 ): 3.508E+14  Parms: VV      M1      
 Compute Stats, Diag. #    225  SItaux    vol(   0 ): 3.513E+14  Parms: UU      U1      
 Compute Stats, Diag. #    226  SItauy    vol(   0 ): 3.508E+14  Parms: VV      U1      
 cg2d: Sum(rhs),rhsMax =  -1.42308796377230E+00  2.93235682613498E-01
 Compute Stats, Diag. #    214  SIarea    vol(   0 ): 3.580E+14  Parms: SM      M1      
 Compute Stats, Diag. #    217  SIheff    vol(   0 ): 3.580E+14  Parms: SM      M1      
 Compute Stats, Diag. #    219  SIhsnow   vol(   0 ): 3.580E+14  Parms: SM      M1      
 Compute Stats, Diag. #     83  sIceLoad  vol(   0 ): 3.580E+14  Parms: SM      U1      
 Compute Stats, Diag. #    223  SIuice    vol(   0 ): 3.513E+14  Parms: UU      M1      
 Compute Stats, Diag. #    224  SIvice    vol(   0 ): 3.508E+14  Parms: VV      M1      
 Compute Stats, Diag. #    225  SItaux    vol(   0 ): 3.513E+14  Parms: UU      U1      
 Compute Stats, Diag. #    226  SItauy    vol(   0 ): 3.508E+14  Parms: VV      U1      
 cg2d: Sum(rhs),rhsMax =  -1.47368084273603E+00  2.93202085961792E-01
 Computing Diagnostic #     86  oceQnet      Counter:       4   Parms: SM      U1      
 Computing Diagnostic #     87  oceQsw       Counter:       4   Parms: SM      U1      
 Computing Diagnostic #     84  oceFWflx     Counter:       4   Parms: SM      U1      
 Computing Diagnostic #     85  oceSflux     Counter:       4   Parms: SM      U1      
 Computing Diagnostic #     80  oceTAUX      Counter:       4   Parms: UU      U1      
           Vector  Mate for  oceTAUX      Diagnostic #     81  oceTAUY  exists 
 Computing Diagnostic #     81  oceTAUY      Counter:       4   Parms: VV      U1      
           Vector  Mate for  oceTAUY      Diagnostic #     80  oceTAUX  exists 
 Computing Diagnostic #     26  THETA        Counter:       4   Parms: SMR     MR      
 Computing Diagnostic #     27  SALT         Counter:       4   Parms: SMR     MR      
 Computing Diagnostic #     30  UVEL         Counter:       4   Parms: UUR     MR      
           Vector  Mate for  UVEL         Diagnostic #     31  VVEL     exists 
 Computing Diagnostic #     31  VVEL         Counter:       4   Parms: VVR     MR      
           Vector  Mate for  VVEL         Diagnostic #     30  UVEL     exists 
 Computing Diagnostic #    214  SIarea       Counter:       4   Parms: SM      M1      
 Computing Diagnostic #    217  SIheff       Counter:       4   Parms: SM      M1      
 Computing Diagnostic #    219  SIhsnow      Counter:       4   Parms: SM      M1      
 Computing Diagnostic #     83  sIceLoad     Counter:       4   Parms: SM      U1      
 Computing Diagnostic #    223  SIuice       Counter:       4   Parms: UU      M1      
           Vector  Mate for  SIuice       Diagnostic #    224  SIvice   exists 
 Computing Diagnostic #    224  SIvice       Counter:       4   Parms: VV      M1      
           Vector  Mate for  SIvice       Diagnostic #    223  SIuice   exists 
 Computing Diagnostic #    225  SItaux       Counter:       4   Parms: UU      U1      
           Vector  Mate for  SItaux       Diagnostic #    226  SItauy   exists 
 Computing Diagnostic #    226  SItauy       Counter:       4   Parms: VV      U1      
           Vector  Mate for  SItauy       Diagnostic #    225  SItaux   exists 
 Computing Diagnostic #    285  SIareaN      Counter:       4   Parms: SM      MX      
 Computing Diagnostic #    284  SIheffN      Counter:       4   Parms: SM      MX      
 Computing Diagnostic #    286  SIhsnowN     Counter:       4   Parms: SM      MX      
 Compute Stats, Diag. #    214  SIarea    vol(   0 ): 3.580E+14  Parms: SM      M1      
 Compute Stats, Diag. #    217  SIheff    vol(   0 ): 3.580E+14  Parms: SM      M1      
 Compute Stats, Diag. #    219  SIhsnow   vol(   0 ): 3.580E+14  Parms: SM      M1      
 Compute Stats, Diag. #     83  sIceLoad  vol(   0 ): 3.580E+14  Parms: SM      U1      
 Compute Stats, Diag. #    223  SIuice    vol(   0 ): 3.513E+14  Parms: UU      M1      
 Compute Stats, Diag. #    224  SIvice    vol(   0 ): 3.508E+14  Parms: VV      M1      
 Compute Stats, Diag. #    225  SItaux    vol(   0 ): 3.513E+14  Parms: UU      U1      
 Compute Stats, Diag. #    226  SItauy    vol(   0 ): 3.508E+14  Parms: VV      U1      
 cg2d: Sum(rhs),rhsMax =  -1.52966817377150E+00  2.93167013466702E-01
 Compute Stats, Diag. #    214  SIarea    vol(   0 ): 3.580E+14  Parms: SM      M1      
 Compute Stats, Diag. #    217  SIheff    vol(   0 ): 3.580E+14  Parms: SM      M1      
 Compute Stats, Diag. #    219  SIhsnow   vol(   0 ): 3.580E+14  Parms: SM      M1      
 Compute Stats, Diag. #     83  sIceLoad  vol(   0 ): 3.580E+14  Parms: SM      U1      
 Compute Stats, Diag. #    223  SIuice    vol(   0 ): 3.513E+14  Parms: UU      M1      
 Compute Stats, Diag. #    224  SIvice    vol(   0 ): 3.508E+14  Parms: VV      M1      
 Compute Stats, Diag. #    225  SItaux    vol(   0 ): 3.513E+14  Parms: UU      U1      
 Compute Stats, Diag. #    226  SItauy    vol(   0 ): 3.508E+14  Parms: VV      U1      
 cg2d: Sum(rhs),rhsMax =  -1.58642884637970E+00  2.93130953919206E-01
 Compute Stats, Diag. #    214  SIarea    vol(   0 ): 3.580E+14  Parms: SM      M1      
 Compute Stats, Diag. #    217  SIheff    vol(   0 ): 3.580E+14  Parms: SM      M1      
 Compute Stats, Diag. #    219  SIhsnow   vol(   0 ): 3.580E+14  Parms: SM      M1      
 Compute Stats, Diag. #     83  sIceLoad  vol(   0 ): 3.580E+14  Parms: SM      U1      
 Compute Stats, Diag. #    223  SIuice    vol(   0 ): 3.513E+14  Parms: UU      M1      
 Compute Stats, Diag. #    224  SIvice    vol(   0 ): 3.508E+14  Parms: VV      M1      
 Compute Stats, Diag. #    225  SItaux    vol(   0 ): 3.513E+14  Parms: UU      U1      
 Compute Stats, Diag. #    226  SItauy    vol(   0 ): 3.508E+14  Parms: VV      U1      
 cg2d: Sum(rhs),rhsMax =  -1.64426009536734E+00  2.93094764404989E-01
 Compute Stats, Diag. #    214  SIarea    vol(   0 ): 3.580E+14  Parms: SM      M1      
 Compute Stats, Diag. #    217  SIheff    vol(   0 ): 3.580E+14  Parms: SM      M1      
 Compute Stats, Diag. #    219  SIhsnow   vol(   0 ): 3.580E+14  Parms: SM      M1      
 Compute Stats, Diag. #     83  sIceLoad  vol(   0 ): 3.580E+14  Parms: SM      U1      
 Compute Stats, Diag. #    223  SIuice    vol(   0 ): 3.513E+14  Parms: UU      M1      
 Compute Stats, Diag. #    224  SIvice    vol(   0 ): 3.508E+14  Parms: VV      M1      
 Compute Stats, Diag. #    225  SItaux    vol(   0 ): 3.513E+14  Parms: UU      U1      
 Compute Stats, Diag. #    226  SItauy    vol(   0 ): 3.508E+14  Parms: VV      U1      
 cg2d: Sum(rhs),rhsMax =  -1.69772917548849E+00  2.93058925099464E-01
(PID.TID 0000.0001)      cg2d_init_res =   4.58904100943271E-02
(PID.TID 0000.0001)      cg2d_iters(min,last) =      -1      25
(PID.TID 0000.0001)      cg2d_last_res =   2.18097945163437E-05
(PID.TID 0000.0001) // =======================================================
(PID.TID 0000.0001) // Begin MONITOR dynamic field statistics
(PID.TID 0000.0001) // =======================================================
(PID.TID 0000.0001) %MON time_tsnumber                =                   688
(PID.TID 0000.0001) %MON time_secondsf                =   6.1920000000000E+05
(PID.TID 0000.0001) %MON dynstat_eta_max              =   1.0319232306838E+00
(PID.TID 0000.0001) %MON dynstat_eta_min              =  -1.8546059739899E+00
(PID.TID 0000.0001) %MON dynstat_eta_mean             =   5.3704596007881E-05
(PID.TID 0000.0001) %MON dynstat_eta_sd               =   6.3433483900932E-01
(PID.TID 0000.0001) %MON dynstat_eta_del2             =   5.3130944045408E-05
(PID.TID 0000.0001) %MON dynstat_uvel_max             =   7.3048718550414E-01
(PID.TID 0000.0001) %MON dynstat_uvel_min             =  -6.5111697725731E-01
(PID.TID 0000.0001) %MON dynstat_uvel_mean            =   1.3886358794453E-03
(PID.TID 0000.0001) %MON dynstat_uvel_sd              =   1.8610914542688E-02
(PID.TID 0000.0001) %MON dynstat_uvel_del2            =   7.3091775839523E-06
(PID.TID 0000.0001) %MON dynstat_vvel_max             =   5.6802942828912E-01
(PID.TID 0000.0001) %MON dynstat_vvel_min             =  -8.8151786402312E-01
(PID.TID 0000.0001) %MON dynstat_vvel_mean            =   1.1308634424273E-03
(PID.TID 0000.0001) %MON dynstat_vvel_sd              =   1.9447933633658E-02
(PID.TID 0000.0001) %MON dynstat_vvel_del2            =   7.3629290654221E-06
(PID.TID 0000.0001) %MON dynstat_wvel_max             =   3.7808152222053E-04
(PID.TID 0000.0001) %MON dynstat_wvel_min             =  -8.5418284260689E-04
(PID.TID 0000.0001) %MON dynstat_wvel_mean            =   5.3941048961685E-09
(PID.TID 0000.0001) %MON dynstat_wvel_sd              =   1.9986030125084E-05
(PID.TID 0000.0001) %MON dynstat_wvel_del2            =   1.4514609420637E-08
(PID.TID 0000.0001) %MON dynstat_theta_max            =   3.2135627094109E+01
(PID.TID 0000.0001) %MON dynstat_theta_min            =  -2.0400752136580E+00
(PID.TID 0000.0001) %MON dynstat_theta_mean           =   3.5903270960904E+00
(PID.TID 0000.0001) %MON dynstat_theta_sd             =   4.4367488003488E+00
(PID.TID 0000.0001) %MON dynstat_theta_del2           =   9.2601944552436E-05
(PID.TID 0000.0001) %MON dynstat_salt_max             =   4.0711555536232E+01
(PID.TID 0000.0001) %MON dynstat_salt_min             =   7.1096274592039E+00
(PID.TID 0000.0001) %MON dynstat_salt_mean            =   3.4725571082506E+01
(PID.TID 0000.0001) %MON dynstat_salt_sd              =   3.7705062404049E-01
(PID.TID 0000.0001) %MON dynstat_salt_del2            =   3.5738845298920E-05
(PID.TID 0000.0001) %MON dynstat_sst_max              =   3.2134201226597E+01
(PID.TID 0000.0001) %MON dynstat_sst_min              =  -1.8124342531308E+00
(PID.TID 0000.0001) %MON dynstat_sst_mean             =   1.8487710757395E+01
(PID.TID 0000.0001) %MON dynstat_sst_sd               =   1.0243195091407E+01
(PID.TID 0000.0001) %MON dynstat_sst_del2             =   8.0201969182502E-04
(PID.TID 0000.0001) %MON dynstat_sss_max              =   3.9104285821051E+01
(PID.TID 0000.0001) %MON dynstat_sss_min              =   7.1096274592039E+00
(PID.TID 0000.0001) %MON dynstat_sss_mean             =   3.4700177725497E+01
(PID.TID 0000.0001) %MON dynstat_sss_sd               =   1.1686306772344E+00
(PID.TID 0000.0001) %MON dynstat_sss_del2             =   1.1099941637269E-03
(PID.TID 0000.0001) %MON forcing_qnet_max             =   8.7533105468750E+02
(PID.TID 0000.0001) %MON forcing_qnet_min             =  -9.2750451660156E+02
(PID.TID 0000.0001) %MON forcing_qnet_mean            =  -2.1003942166684E+01
(PID.TID 0000.0001) %MON forcing_qnet_sd              =   2.0275920301767E+02
(PID.TID 0000.0001) %MON forcing_qnet_del2            =   3.2976904406140E-01
(PID.TID 0000.0001) %MON forcing_qsw_max              =   0.0000000000000E+00
(PID.TID 0000.0001) %MON forcing_qsw_min              =  -1.0997151550716E+02
(PID.TID 0000.0001) %MON forcing_qsw_mean             =  -2.1209680855850E+01
(PID.TID 0000.0001) %MON forcing_qsw_sd               =   2.9577238415502E+01
(PID.TID 0000.0001) %MON forcing_qsw_del2             =   2.1723539510678E-02
(PID.TID 0000.0001) %MON forcing_empmr_max            =   2.1309365984052E-03
(PID.TID 0000.0001) %MON forcing_empmr_min            =  -5.5458121001720E-02
(PID.TID 0000.0001) %MON forcing_empmr_mean           =  -1.9338314538421E-06
(PID.TID 0000.0001) %MON forcing_empmr_sd             =   2.4787317745121E-04
(PID.TID 0000.0001) %MON forcing_empmr_del2           =   2.5154150120943E-06
(PID.TID 0000.0001) %MON forcing_fu_max               =   5.5398797988892E-01
(PID.TID 0000.0001) %MON forcing_fu_min               =  -7.9284095764160E-01
(PID.TID 0000.0001) %MON forcing_fu_mean              =   2.8480165616157E-03
(PID.TID 0000.0001) %MON forcing_fu_sd                =   9.4089368463202E-02
(PID.TID 0000.0001) %MON forcing_fu_del2              =   1.3192021765664E-04
(PID.TID 0000.0001) %MON forcing_fv_max               =   6.1270022392273E-01
(PID.TID 0000.0001) %MON forcing_fv_min               =  -7.8778904676437E-01
(PID.TID 0000.0001) %MON forcing_fv_mean              =  -9.0807097803460E-03
(PID.TID 0000.0001) %MON forcing_fv_sd                =   1.0373933265666E-01
(PID.TID 0000.0001) %MON forcing_fv_del2              =   1.3272736225861E-04
(PID.TID 0000.0001) %MON trAdv_CFL_u_max              =   1.0706444619762E-02
(PID.TID 0000.0001) %MON trAdv_CFL_v_max              =   1.1725358359660E-02
(PID.TID 0000.0001) %MON trAdv_CFL_w_max              =   2.0563691958682E-02
(PID.TID 0000.0001) %MON advcfl_uvel_max              =   7.2801918752498E-03
(PID.TID 0000.0001) %MON advcfl_vvel_max              =   1.0083035947166E-02
(PID.TID 0000.0001) %MON advcfl_wvel_max              =   1.8054477246432E-02
(PID.TID 0000.0001) %MON advcfl_W_hf_max              =   1.8935079609029E-02
(PID.TID 0000.0001) %MON pe_b_mean                    =   5.2929209037544E-04
(PID.TID 0000.0001) %MON ke_max                       =   3.9274297017286E-01
(PID.TID 0000.0001) %MON ke_mean                      =   3.5093837504995E-04
(PID.TID 0000.0001) %MON ke_vol                       =   1.3349978955607E+18
(PID.TID 0000.0001) %MON vort_r_min                   =  -1.2551979339297E-05
(PID.TID 0000.0001) %MON vort_r_max                   =   1.6770613677071E-05
(PID.TID 0000.0001) %MON vort_a_mean                  =  -1.9727864647440E-05
(PID.TID 0000.0001) %MON vort_a_sd                    =   7.4542982880248E-05
(PID.TID 0000.0001) %MON vort_p_mean                  =  -2.1760533172896E-05
(PID.TID 0000.0001) %MON vort_p_sd                    =   9.7245440754465E-05
(PID.TID 0000.0001) %MON surfExpan_theta_mean         =   1.9160848930266E-07
(PID.TID 0000.0001) %MON surfExpan_salt_mean          =   3.2401269456903E-08
(PID.TID 0000.0001) // =======================================================
(PID.TID 0000.0001) // End MONITOR dynamic field statistics
(PID.TID 0000.0001) // =======================================================
(PID.TID 0000.0001) // =======================================================
(PID.TID 0000.0001) // Begin MONITOR SEAICE statistics
(PID.TID 0000.0001) // =======================================================
(PID.TID 0000.0001) %MON seaice_tsnumber              =                   688
(PID.TID 0000.0001) %MON seaice_time_sec              =   6.1920000000000E+05
(PID.TID 0000.0001) %MON seaice_uice_max              =   4.0000000000000E-01
(PID.TID 0000.0001) %MON seaice_uice_min              =  -4.0000000000000E-01
(PID.TID 0000.0001) %MON seaice_uice_mean             =  -8.3054598624025E-03
(PID.TID 0000.0001) %MON seaice_uice_sd               =   1.9802383574176E-01
(PID.TID 0000.0001) %MON seaice_uice_del2             =   2.2931571122150E-04
(PID.TID 0000.0001) %MON seaice_vice_max              =   4.0000000000000E-01
(PID.TID 0000.0001) %MON seaice_vice_min              =  -4.0000000000000E-01
(PID.TID 0000.0001) %MON seaice_vice_mean             =  -2.1960776359499E-02
(PID.TID 0000.0001) %MON seaice_vice_sd               =   2.1302038025672E-01
(PID.TID 0000.0001) %MON seaice_vice_del2             =   2.3932563818061E-04
(PID.TID 0000.0001) %MON seaice_area_max              =   1.0000000000000E+00
(PID.TID 0000.0001) %MON seaice_area_min              =   0.0000000000000E+00
(PID.TID 0000.0001) %MON seaice_area_mean             =   6.6126048156453E-02
(PID.TID 0000.0001) %MON seaice_area_sd               =   2.3028459293020E-01
(PID.TID 0000.0001) %MON seaice_area_del2             =   3.9649384097521E-04
(PID.TID 0000.0001) %MON seaice_heff_max              =   2.5016950440709E+01
(PID.TID 0000.0001) %MON seaice_heff_min              =   0.0000000000000E+00
(PID.TID 0000.0001) %MON seaice_heff_mean             =   2.1291164157884E-01
(PID.TID 0000.0001) %MON seaice_heff_sd               =   1.0668391093797E+00
(PID.TID 0000.0001) %MON seaice_heff_del2             =   3.8476085250198E-03
(PID.TID 0000.0001) %MON seaice_hsnow_max             =   8.2630360085168E+00
(PID.TID 0000.0001) %MON seaice_hsnow_min             =   0.0000000000000E+00
(PID.TID 0000.0001) %MON seaice_hsnow_mean            =   2.4080796668224E-02
(PID.TID 0000.0001) %MON seaice_hsnow_sd              =   1.5628236476108E-01
(PID.TID 0000.0001) %MON seaice_hsnow_del2            =   1.2404827933765E-03
(PID.TID 0000.0001) // =======================================================
(PID.TID 0000.0001) // End MONITOR SEAICE statistics
(PID.TID 0000.0001) // =======================================================
 Computing Diagnostic #     86  oceQnet      Counter:       4   Parms: SM      U1      
 Computing Diagnostic #     87  oceQsw       Counter:       4   Parms: SM      U1      
 Computing Diagnostic #     84  oceFWflx     Counter:       4   Parms: SM      U1      
 Computing Diagnostic #     85  oceSflux     Counter:       4   Parms: SM      U1      
 Computing Diagnostic #     80  oceTAUX      Counter:       4   Parms: UU      U1      
           Vector  Mate for  oceTAUX      Diagnostic #     81  oceTAUY  exists 
 Computing Diagnostic #     81  oceTAUY      Counter:       4   Parms: VV      U1      
           Vector  Mate for  oceTAUY      Diagnostic #     80  oceTAUX  exists 
 Computing Diagnostic #     26  THETA        Counter:       4   Parms: SMR     MR      
 Computing Diagnostic #     27  SALT         Counter:       4   Parms: SMR     MR      
 Computing Diagnostic #     30  UVEL         Counter:       4   Parms: UUR     MR      
           Vector  Mate for  UVEL         Diagnostic #     31  VVEL     exists 
 Computing Diagnostic #     31  VVEL         Counter:       4   Parms: VVR     MR      
           Vector  Mate for  VVEL         Diagnostic #     30  UVEL     exists 
 Computing Diagnostic #    214  SIarea       Counter:       4   Parms: SM      M1      
 Computing Diagnostic #    217  SIheff       Counter:       4   Parms: SM      M1      
 Computing Diagnostic #    219  SIhsnow      Counter:       4   Parms: SM      M1      
 Computing Diagnostic #     83  sIceLoad     Counter:       4   Parms: SM      U1      
 Computing Diagnostic #    223  SIuice       Counter:       4   Parms: UU      M1      
           Vector  Mate for  SIuice       Diagnostic #    224  SIvice   exists 
 Computing Diagnostic #    224  SIvice       Counter:       4   Parms: VV      M1      
           Vector  Mate for  SIvice       Diagnostic #    223  SIuice   exists 
 Computing Diagnostic #    225  SItaux       Counter:       4   Parms: UU      U1      
           Vector  Mate for  SItaux       Diagnostic #    226  SItauy   exists 
 Computing Diagnostic #    226  SItauy       Counter:       4   Parms: VV      U1      
           Vector  Mate for  SItauy       Diagnostic #    225  SItaux   exists 
 Computing Diagnostic #    285  SIareaN      Counter:       4   Parms: SM      MX      
 Computing Diagnostic #    284  SIheffN      Counter:       4   Parms: SM      MX      
 Computing Diagnostic #    286  SIhsnowN     Counter:       4   Parms: SM      MX      
 Compute Stats, Diag. #    214  SIarea    vol(   0 ): 3.580E+14  Parms: SM      M1      
 Compute Stats, Diag. #    217  SIheff    vol(   0 ): 3.580E+14  Parms: SM      M1      
 Compute Stats, Diag. #    219  SIhsnow   vol(   0 ): 3.580E+14  Parms: SM      M1      
 Compute Stats, Diag. #     83  sIceLoad  vol(   0 ): 3.580E+14  Parms: SM      U1      
 Compute Stats, Diag. #    223  SIuice    vol(   0 ): 3.513E+14  Parms: UU      M1      
 Compute Stats, Diag. #    224  SIvice    vol(   0 ): 3.508E+14  Parms: VV      M1      
 Compute Stats, Diag. #    225  SItaux    vol(   0 ): 3.513E+14  Parms: UU      U1      
 Compute Stats, Diag. #    226  SItauy    vol(   0 ): 3.508E+14  Parms: VV      U1      
 cg2d: Sum(rhs),rhsMax =  -1.74476168739429E+00  2.93024191361252E-01
 Compute Stats, Diag. #    214  SIarea    vol(   0 ): 3.580E+14  Parms: SM      M1      
 Compute Stats, Diag. #    217  SIheff    vol(   0 ): 3.580E+14  Parms: SM      M1      
 Compute Stats, Diag. #    219  SIhsnow   vol(   0 ): 3.580E+14  Parms: SM      M1      
 Compute Stats, Diag. #     83  sIceLoad  vol(   0 ): 3.580E+14  Parms: SM      U1      
 Compute Stats, Diag. #    223  SIuice    vol(   0 ): 3.513E+14  Parms: UU      M1      
 Compute Stats, Diag. #    224  SIvice    vol(   0 ): 3.508E+14  Parms: VV      M1      
 Compute Stats, Diag. #    225  SItaux    vol(   0 ): 3.513E+14  Parms: UU      U1      
 Compute Stats, Diag. #    226  SItauy    vol(   0 ): 3.508E+14  Parms: VV      U1      
 cg2d: Sum(rhs),rhsMax =  -1.77767207550309E+00  2.92991032037961E-01
 Compute Stats, Diag. #    214  SIarea    vol(   0 ): 3.580E+14  Parms: SM      M1      
 Compute Stats, Diag. #    217  SIheff    vol(   0 ): 3.580E+14  Parms: SM      M1      
 Compute Stats, Diag. #    219  SIhsnow   vol(   0 ): 3.580E+14  Parms: SM      M1      
 Compute Stats, Diag. #     83  sIceLoad  vol(   0 ): 3.580E+14  Parms: SM      U1      
 Compute Stats, Diag. #    223  SIuice    vol(   0 ): 3.513E+14  Parms: UU      M1      
 Compute Stats, Diag. #    224  SIvice    vol(   0 ): 3.508E+14  Parms: VV      M1      
 Compute Stats, Diag. #    225  SItaux    vol(   0 ): 3.513E+14  Parms: UU      U1      
 Compute Stats, Diag. #    226  SItauy    vol(   0 ): 3.508E+14  Parms: VV      U1      
 cg2d: Sum(rhs),rhsMax =  -1.81337643484522E+00  2.92959745331515E-01
 Compute Stats, Diag. #    214  SIarea    vol(   0 ): 3.580E+14  Parms: SM      M1      
 Compute Stats, Diag. #    217  SIheff    vol(   0 ): 3.580E+14  Parms: SM      M1      
 Compute Stats, Diag. #    219  SIhsnow   vol(   0 ): 3.580E+14  Parms: SM      M1      
 Compute Stats, Diag. #     83  sIceLoad  vol(   0 ): 3.580E+14  Parms: SM      U1      
 Compute Stats, Diag. #    223  SIuice    vol(   0 ): 3.513E+14  Parms: UU      M1      
 Compute Stats, Diag. #    224  SIvice    vol(   0 ): 3.508E+14  Parms: VV      M1      
 Compute Stats, Diag. #    225  SItaux    vol(   0 ): 3.513E+14  Parms: UU      U1      
 Compute Stats, Diag. #    226  SItauy    vol(   0 ): 3.508E+14  Parms: VV      U1      
 cg2d: Sum(rhs),rhsMax =  -1.85714826397719E+00  2.92930737720771E-01
 Computing Diagnostic #     86  oceQnet      Counter:       4   Parms: SM      U1      
 Computing Diagnostic #     87  oceQsw       Counter:       4   Parms: SM      U1      
 Computing Diagnostic #     84  oceFWflx     Counter:       4   Parms: SM      U1      
 Computing Diagnostic #     85  oceSflux     Counter:       4   Parms: SM      U1      
 Computing Diagnostic #     80  oceTAUX      Counter:       4   Parms: UU      U1      
           Vector  Mate for  oceTAUX      Diagnostic #     81  oceTAUY  exists 
 Computing Diagnostic #     81  oceTAUY      Counter:       4   Parms: VV      U1      
           Vector  Mate for  oceTAUY      Diagnostic #     80  oceTAUX  exists 
 Computing Diagnostic #     26  THETA        Counter:       4   Parms: SMR     MR      
 Computing Diagnostic #     27  SALT         Counter:       4   Parms: SMR     MR      
 Computing Diagnostic #     30  UVEL         Counter:       4   Parms: UUR     MR      
           Vector  Mate for  UVEL         Diagnostic #     31  VVEL     exists 
 Computing Diagnostic #     31  VVEL         Counter:       4   Parms: VVR     MR      
           Vector  Mate for  VVEL         Diagnostic #     30  UVEL     exists 
 Computing Diagnostic #    214  SIarea       Counter:       4   Parms: SM      M1      
 Computing Diagnostic #    217  SIheff       Counter:       4   Parms: SM      M1      
 Computing Diagnostic #    219  SIhsnow      Counter:       4   Parms: SM      M1      
 Computing Diagnostic #     83  sIceLoad     Counter:       4   Parms: SM      U1      
 Computing Diagnostic #    223  SIuice       Counter:       4   Parms: UU      M1      
           Vector  Mate for  SIuice       Diagnostic #    224  SIvice   exists 
 Computing Diagnostic #    224  SIvice       Counter:       4   Parms: VV      M1      
           Vector  Mate for  SIvice       Diagnostic #    223  SIuice   exists 
 Computing Diagnostic #    225  SItaux       Counter:       4   Parms: UU      U1      
           Vector  Mate for  SItaux       Diagnostic #    226  SItauy   exists 
 Computing Diagnostic #    226  SItauy       Counter:       4   Parms: VV      U1      
           Vector  Mate for  SItauy       Diagnostic #    225  SItaux   exists 
 Computing Diagnostic #    285  SIareaN      Counter:       4   Parms: SM      MX      
 Computing Diagnostic #    284  SIheffN      Counter:       4   Parms: SM      MX      
 Computing Diagnostic #    286  SIhsnowN     Counter:       4   Parms: SM      MX      
 Compute Stats, Diag. #    214  SIarea    vol(   0 ): 3.580E+14  Parms: SM      M1      
 Compute Stats, Diag. #    217  SIheff    vol(   0 ): 3.580E+14  Parms: SM      M1      
 Compute Stats, Diag. #    219  SIhsnow   vol(   0 ): 3.580E+14  Parms: SM      M1      
 Compute Stats, Diag. #     83  sIceLoad  vol(   0 ): 3.580E+14  Parms: SM      U1      
 Compute Stats, Diag. #    223  SIuice    vol(   0 ): 3.513E+14  Parms: UU      M1      
 Compute Stats, Diag. #    224  SIvice    vol(   0 ): 3.508E+14  Parms: VV      M1      
 Compute Stats, Diag. #    225  SItaux    vol(   0 ): 3.513E+14  Parms: UU      U1      
 Compute Stats, Diag. #    226  SItauy    vol(   0 ): 3.508E+14  Parms: VV      U1      
 cg2d: Sum(rhs),rhsMax =  -1.89256291333376E+00  2.92904379096282E-01
 Compute Stats, Diag. #    214  SIarea    vol(   0 ): 3.580E+14  Parms: SM      M1      
 Compute Stats, Diag. #    217  SIheff    vol(   0 ): 3.580E+14  Parms: SM      M1      
 Compute Stats, Diag. #    219  SIhsnow   vol(   0 ): 3.580E+14  Parms: SM      M1      
 Compute Stats, Diag. #     83  sIceLoad  vol(   0 ): 3.580E+14  Parms: SM      U1      
 Compute Stats, Diag. #    223  SIuice    vol(   0 ): 3.513E+14  Parms: UU      M1      
 Compute Stats, Diag. #    224  SIvice    vol(   0 ): 3.508E+14  Parms: VV      M1      
 Compute Stats, Diag. #    225  SItaux    vol(   0 ): 3.513E+14  Parms: UU      U1      
 Compute Stats, Diag. #    226  SItauy    vol(   0 ): 3.508E+14  Parms: VV      U1      
 cg2d: Sum(rhs),rhsMax =  -1.92858705872975E+00  2.92881296709161E-01
 Compute Stats, Diag. #    214  SIarea    vol(   0 ): 3.580E+14  Parms: SM      M1      
 Compute Stats, Diag. #    217  SIheff    vol(   0 ): 3.580E+14  Parms: SM      M1      
 Compute Stats, Diag. #    219  SIhsnow   vol(   0 ): 3.580E+14  Parms: SM      M1      
 Compute Stats, Diag. #     83  sIceLoad  vol(   0 ): 3.580E+14  Parms: SM      U1      
 Compute Stats, Diag. #    223  SIuice    vol(   0 ): 3.513E+14  Parms: UU      M1      
 Compute Stats, Diag. #    224  SIvice    vol(   0 ): 3.508E+14  Parms: VV      M1      
 Compute Stats, Diag. #    225  SItaux    vol(   0 ): 3.513E+14  Parms: UU      U1      
 Compute Stats, Diag. #    226  SItauy    vol(   0 ): 3.508E+14  Parms: VV      U1      
 cg2d: Sum(rhs),rhsMax =  -1.96274346503024E+00  2.92861739518524E-01
 Compute Stats, Diag. #    214  SIarea    vol(   0 ): 3.580E+14  Parms: SM      M1      
 Compute Stats, Diag. #    217  SIheff    vol(   0 ): 3.580E+14  Parms: SM      M1      
 Compute Stats, Diag. #    219  SIhsnow   vol(   0 ): 3.580E+14  Parms: SM      M1      
 Compute Stats, Diag. #     83  sIceLoad  vol(   0 ): 3.580E+14  Parms: SM      U1      
 Compute Stats, Diag. #    223  SIuice    vol(   0 ): 3.513E+14  Parms: UU      M1      
 Compute Stats, Diag. #    224  SIvice    vol(   0 ): 3.508E+14  Parms: VV      M1      
 Compute Stats, Diag. #    225  SItaux    vol(   0 ): 3.513E+14  Parms: UU      U1      
 Compute Stats, Diag. #    226  SItauy    vol(   0 ): 3.508E+14  Parms: VV      U1      
 cg2d: Sum(rhs),rhsMax =  -2.00330911395980E+00  2.92846230621376E-01
(PID.TID 0000.0001)      cg2d_init_res =   4.73379809323642E-02
(PID.TID 0000.0001)      cg2d_iters(min,last) =      -1      25
(PID.TID 0000.0001)      cg2d_last_res =   2.16834250250701E-05
(PID.TID 0000.0001) // =======================================================
(PID.TID 0000.0001) // Begin MONITOR dynamic field statistics
(PID.TID 0000.0001) // =======================================================
(PID.TID 0000.0001) %MON time_tsnumber                =                   696
(PID.TID 0000.0001) %MON time_secondsf                =   6.2640000000000E+05
(PID.TID 0000.0001) %MON dynstat_eta_max              =   1.0345551558879E+00
(PID.TID 0000.0001) %MON dynstat_eta_min              =  -1.8548654589479E+00
(PID.TID 0000.0001) %MON dynstat_eta_mean             =   6.3371065419388E-05
(PID.TID 0000.0001) %MON dynstat_eta_sd               =   6.3456317866418E-01
(PID.TID 0000.0001) %MON dynstat_eta_del2             =   5.3190677112334E-05
(PID.TID 0000.0001) %MON dynstat_uvel_max             =   7.2396328155658E-01
(PID.TID 0000.0001) %MON dynstat_uvel_min             =  -6.5647847862776E-01
(PID.TID 0000.0001) %MON dynstat_uvel_mean            =   1.3856394099324E-03
(PID.TID 0000.0001) %MON dynstat_uvel_sd              =   1.8610370968729E-02
(PID.TID 0000.0001) %MON dynstat_uvel_del2            =   7.2772500523323E-06
(PID.TID 0000.0001) %MON dynstat_vvel_max             =   5.3650696410761E-01
(PID.TID 0000.0001) %MON dynstat_vvel_min             =  -8.8025052953497E-01
(PID.TID 0000.0001) %MON dynstat_vvel_mean            =   1.1285420781978E-03
(PID.TID 0000.0001) %MON dynstat_vvel_sd              =   1.9435374833956E-02
(PID.TID 0000.0001) %MON dynstat_vvel_del2            =   7.3338849179571E-06
(PID.TID 0000.0001) %MON dynstat_wvel_max             =   3.7755888843824E-04
(PID.TID 0000.0001) %MON dynstat_wvel_min             =  -8.5301282636369E-04
(PID.TID 0000.0001) %MON dynstat_wvel_mean            =   7.5360044780614E-09
(PID.TID 0000.0001) %MON dynstat_wvel_sd              =   1.9987001873397E-05
(PID.TID 0000.0001) %MON dynstat_wvel_del2            =   1.4481235608250E-08
(PID.TID 0000.0001) %MON dynstat_theta_max            =   3.2150000200225E+01
(PID.TID 0000.0001) %MON dynstat_theta_min            =  -2.0400560514739E+00
(PID.TID 0000.0001) %MON dynstat_theta_mean           =   3.5903304907043E+00
(PID.TID 0000.0001) %MON dynstat_theta_sd             =   4.4367888509635E+00
(PID.TID 0000.0001) %MON dynstat_theta_del2           =   9.2515314292771E-05
(PID.TID 0000.0001) %MON dynstat_salt_max             =   4.0711554913343E+01
(PID.TID 0000.0001) %MON dynstat_salt_min             =   7.1114886648942E+00
(PID.TID 0000.0001) %MON dynstat_salt_mean            =   3.4725571016604E+01
(PID.TID 0000.0001) %MON dynstat_salt_sd              =   3.7705156524190E-01
(PID.TID 0000.0001) %MON dynstat_salt_del2            =   3.5606191720829E-05
(PID.TID 0000.0001) %MON dynstat_sst_max              =   3.2150000200225E+01
(PID.TID 0000.0001) %MON dynstat_sst_min              =  -1.8112527917802E+00
(PID.TID 0000.0001) %MON dynstat_sst_mean             =   1.8487759708576E+01
(PID.TID 0000.0001) %MON dynstat_sst_sd               =   1.0244822037698E+01
(PID.TID 0000.0001) %MON dynstat_sst_del2             =   8.0243546147169E-04
(PID.TID 0000.0001) %MON dynstat_sss_max              =   3.9104092924552E+01
(PID.TID 0000.0001) %MON dynstat_sss_min              =   7.1114886648942E+00
(PID.TID 0000.0001) %MON dynstat_sss_mean             =   3.4700186518839E+01
(PID.TID 0000.0001) %MON dynstat_sss_sd               =   1.1689257997730E+00
(PID.TID 0000.0001) %MON dynstat_sss_del2             =   1.1023563080893E-03
(PID.TID 0000.0001) %MON forcing_qnet_max             =   8.1927770996094E+02
(PID.TID 0000.0001) %MON forcing_qnet_min             =  -6.7260756697701E+02
(PID.TID 0000.0001) %MON forcing_qnet_mean            =   2.4532406296187E+00
(PID.TID 0000.0001) %MON forcing_qnet_sd              =   1.8668372512279E+02
(PID.TID 0000.0001) %MON forcing_qnet_del2            =   3.1712477596325E-01
(PID.TID 0000.0001) %MON forcing_qsw_max              =   0.0000000000000E+00
(PID.TID 0000.0001) %MON forcing_qsw_min              =  -1.0787767046727E+02
(PID.TID 0000.0001) %MON forcing_qsw_mean             =  -1.8752171520320E+01
(PID.TID 0000.0001) %MON forcing_qsw_sd               =   2.7376722808776E+01
(PID.TID 0000.0001) %MON forcing_qsw_del2             =   2.2679410641883E-02
(PID.TID 0000.0001) %MON forcing_empmr_max            =   1.4657932333648E-03
(PID.TID 0000.0001) %MON forcing_empmr_min            =  -6.1916876584291E-02
(PID.TID 0000.0001) %MON forcing_empmr_mean           =  -1.4671493820778E-06
(PID.TID 0000.0001) %MON forcing_empmr_sd             =   2.6689928746830E-04
(PID.TID 0000.0001) %MON forcing_empmr_del2           =   2.7845371269398E-06
(PID.TID 0000.0001) %MON forcing_fu_max               =   6.0806751251221E-01
(PID.TID 0000.0001) %MON forcing_fu_min               =  -7.8896996378899E-01
(PID.TID 0000.0001) %MON forcing_fu_mean              =   3.0535576651878E-03
(PID.TID 0000.0001) %MON forcing_fu_sd                =   9.3829024470388E-02
(PID.TID 0000.0001) %MON forcing_fu_del2              =   1.2985967733186E-04
(PID.TID 0000.0001) %MON forcing_fv_max               =   6.1290082335472E-01
(PID.TID 0000.0001) %MON forcing_fv_min               =  -8.7349855899811E-01
(PID.TID 0000.0001) %MON forcing_fv_mean              =  -9.7043409521736E-03
(PID.TID 0000.0001) %MON forcing_fv_sd                =   1.0395201279874E-01
(PID.TID 0000.0001) %MON forcing_fv_del2              =   1.3260159227462E-04
(PID.TID 0000.0001) %MON trAdv_CFL_u_max              =   1.0343909025255E-02
(PID.TID 0000.0001) %MON trAdv_CFL_v_max              =   1.1761902385803E-02
(PID.TID 0000.0001) %MON trAdv_CFL_w_max              =   2.0532025167363E-02
(PID.TID 0000.0001) %MON advcfl_uvel_max              =   7.2819670415377E-03
(PID.TID 0000.0001) %MON advcfl_vvel_max              =   1.0018451808429E-02
(PID.TID 0000.0001) %MON advcfl_wvel_max              =   1.8729490242779E-02
(PID.TID 0000.0001) %MON advcfl_W_hf_max              =   1.8924244000809E-02
(PID.TID 0000.0001) %MON pe_b_mean                    =   5.2967321446235E-04
(PID.TID 0000.0001) %MON ke_max                       =   3.9246522351308E-01
(PID.TID 0000.0001) %MON ke_mean                      =   3.5068658413327E-04
(PID.TID 0000.0001) %MON ke_vol                       =   1.3349978991676E+18
(PID.TID 0000.0001) %MON vort_r_min                   =  -1.3082653452605E-05
(PID.TID 0000.0001) %MON vort_r_max                   =   1.7261764083598E-05
(PID.TID 0000.0001) %MON vort_a_mean                  =  -1.9727864647440E-05
(PID.TID 0000.0001) %MON vort_a_sd                    =   7.4542981857252E-05
(PID.TID 0000.0001) %MON vort_p_mean                  =  -2.1760533147409E-05
(PID.TID 0000.0001) %MON vort_p_sd                    =   9.7245485326719E-05
(PID.TID 0000.0001) %MON surfExpan_theta_mean         =   2.1805213860918E-07
(PID.TID 0000.0001) %MON surfExpan_salt_mean          =   3.0105769049974E-08
(PID.TID 0000.0001) // =======================================================
(PID.TID 0000.0001) // End MONITOR dynamic field statistics
(PID.TID 0000.0001) // =======================================================
(PID.TID 0000.0001) // =======================================================
(PID.TID 0000.0001) // Begin MONITOR SEAICE statistics
(PID.TID 0000.0001) // =======================================================
(PID.TID 0000.0001) %MON seaice_tsnumber              =                   696
(PID.TID 0000.0001) %MON seaice_time_sec              =   6.2640000000000E+05
(PID.TID 0000.0001) %MON seaice_uice_max              =   4.0000000000000E-01
(PID.TID 0000.0001) %MON seaice_uice_min              =  -4.0000000000000E-01
(PID.TID 0000.0001) %MON seaice_uice_mean             =  -8.3054598624025E-03
(PID.TID 0000.0001) %MON seaice_uice_sd               =   1.9802383574176E-01
(PID.TID 0000.0001) %MON seaice_uice_del2             =   2.2931571122150E-04
(PID.TID 0000.0001) %MON seaice_vice_max              =   4.0000000000000E-01
(PID.TID 0000.0001) %MON seaice_vice_min              =  -4.0000000000000E-01
(PID.TID 0000.0001) %MON seaice_vice_mean             =  -2.1960776359499E-02
(PID.TID 0000.0001) %MON seaice_vice_sd               =   2.1302038025672E-01
(PID.TID 0000.0001) %MON seaice_vice_del2             =   2.3932563818061E-04
(PID.TID 0000.0001) %MON seaice_area_max              =   1.0000000000000E+00
(PID.TID 0000.0001) %MON seaice_area_min              =   0.0000000000000E+00
(PID.TID 0000.0001) %MON seaice_area_mean             =   6.6087159222336E-02
(PID.TID 0000.0001) %MON seaice_area_sd               =   2.3021389729828E-01
(PID.TID 0000.0001) %MON seaice_area_del2             =   3.9595270207670E-04
(PID.TID 0000.0001) %MON seaice_heff_max              =   2.5014966184623E+01
(PID.TID 0000.0001) %MON seaice_heff_min              =   0.0000000000000E+00
(PID.TID 0000.0001) %MON seaice_heff_mean             =   2.1287443543568E-01
(PID.TID 0000.0001) %MON seaice_heff_sd               =   1.0668054675660E+00
(PID.TID 0000.0001) %MON seaice_heff_del2             =   3.8468967945095E-03
(PID.TID 0000.0001) %MON seaice_hsnow_max             =   8.2623843221809E+00
(PID.TID 0000.0001) %MON seaice_hsnow_min             =   0.0000000000000E+00
(PID.TID 0000.0001) %MON seaice_hsnow_mean            =   2.4078444570531E-02
(PID.TID 0000.0001) %MON seaice_hsnow_sd              =   1.5627329130710E-01
(PID.TID 0000.0001) %MON seaice_hsnow_del2            =   1.2403651354708E-03
(PID.TID 0000.0001) // =======================================================
(PID.TID 0000.0001) // End MONITOR SEAICE statistics
(PID.TID 0000.0001) // =======================================================
 Computing Diagnostic #     86  oceQnet      Counter:       4   Parms: SM      U1      
 Computing Diagnostic #     87  oceQsw       Counter:       4   Parms: SM      U1      
 Computing Diagnostic #     84  oceFWflx     Counter:       4   Parms: SM      U1      
 Computing Diagnostic #     85  oceSflux     Counter:       4   Parms: SM      U1      
 Computing Diagnostic #     80  oceTAUX      Counter:       4   Parms: UU      U1      
           Vector  Mate for  oceTAUX      Diagnostic #     81  oceTAUY  exists 
 Computing Diagnostic #     81  oceTAUY      Counter:       4   Parms: VV      U1      
           Vector  Mate for  oceTAUY      Diagnostic #     80  oceTAUX  exists 
 Computing Diagnostic #     26  THETA        Counter:       4   Parms: SMR     MR      
 Computing Diagnostic #     27  SALT         Counter:       4   Parms: SMR     MR      
 Computing Diagnostic #     30  UVEL         Counter:       4   Parms: UUR     MR      
           Vector  Mate for  UVEL         Diagnostic #     31  VVEL     exists 
 Computing Diagnostic #     31  VVEL         Counter:       4   Parms: VVR     MR      
           Vector  Mate for  VVEL         Diagnostic #     30  UVEL     exists 
 Computing Diagnostic #    214  SIarea       Counter:       4   Parms: SM      M1      
 Computing Diagnostic #    217  SIheff       Counter:       4   Parms: SM      M1      
 Computing Diagnostic #    219  SIhsnow      Counter:       4   Parms: SM      M1      
 Computing Diagnostic #     83  sIceLoad     Counter:       4   Parms: SM      U1      
 Computing Diagnostic #    223  SIuice       Counter:       4   Parms: UU      M1      
           Vector  Mate for  SIuice       Diagnostic #    224  SIvice   exists 
 Computing Diagnostic #    224  SIvice       Counter:       4   Parms: VV      M1      
           Vector  Mate for  SIvice       Diagnostic #    223  SIuice   exists 
 Computing Diagnostic #    225  SItaux       Counter:       4   Parms: UU      U1      
           Vector  Mate for  SItaux       Diagnostic #    226  SItauy   exists 
 Computing Diagnostic #    226  SItauy       Counter:       4   Parms: VV      U1      
           Vector  Mate for  SItauy       Diagnostic #    225  SItaux   exists 
 Computing Diagnostic #    285  SIareaN      Counter:       4   Parms: SM      MX      
 Computing Diagnostic #    284  SIheffN      Counter:       4   Parms: SM      MX      
 Computing Diagnostic #    286  SIhsnowN     Counter:       4   Parms: SM      MX      
 Compute Stats, Diag. #    214  SIarea    vol(   0 ): 3.580E+14  Parms: SM      M1      
 Compute Stats, Diag. #    217  SIheff    vol(   0 ): 3.580E+14  Parms: SM      M1      
 Compute Stats, Diag. #    219  SIhsnow   vol(   0 ): 3.580E+14  Parms: SM      M1      
 Compute Stats, Diag. #     83  sIceLoad  vol(   0 ): 3.580E+14  Parms: SM      U1      
 Compute Stats, Diag. #    223  SIuice    vol(   0 ): 3.513E+14  Parms: UU      M1      
 Compute Stats, Diag. #    224  SIvice    vol(   0 ): 3.508E+14  Parms: VV      M1      
 Compute Stats, Diag. #    225  SItaux    vol(   0 ): 3.513E+14  Parms: UU      U1      
 Compute Stats, Diag. #    226  SItauy    vol(   0 ): 3.508E+14  Parms: VV      U1      
 cg2d: Sum(rhs),rhsMax =  -2.04855993811000E+00  2.92834461027690E-01
 Compute Stats, Diag. #    214  SIarea    vol(   0 ): 3.580E+14  Parms: SM      M1      
 Compute Stats, Diag. #    217  SIheff    vol(   0 ): 3.580E+14  Parms: SM      M1      
 Compute Stats, Diag. #    219  SIhsnow   vol(   0 ): 3.580E+14  Parms: SM      M1      
 Compute Stats, Diag. #     83  sIceLoad  vol(   0 ): 3.580E+14  Parms: SM      U1      
 Compute Stats, Diag. #    223  SIuice    vol(   0 ): 3.513E+14  Parms: UU      M1      
 Compute Stats, Diag. #    224  SIvice    vol(   0 ): 3.508E+14  Parms: VV      M1      
 Compute Stats, Diag. #    225  SItaux    vol(   0 ): 3.513E+14  Parms: UU      U1      
 Compute Stats, Diag. #    226  SItauy    vol(   0 ): 3.508E+14  Parms: VV      U1      
 cg2d: Sum(rhs),rhsMax =  -2.09207779583646E+00  2.92826627797074E-01
 Compute Stats, Diag. #    214  SIarea    vol(   0 ): 3.580E+14  Parms: SM      M1      
 Compute Stats, Diag. #    217  SIheff    vol(   0 ): 3.580E+14  Parms: SM      M1      
 Compute Stats, Diag. #    219  SIhsnow   vol(   0 ): 3.580E+14  Parms: SM      M1      
 Compute Stats, Diag. #     83  sIceLoad  vol(   0 ): 3.580E+14  Parms: SM      U1      
 Compute Stats, Diag. #    223  SIuice    vol(   0 ): 3.513E+14  Parms: UU      M1      
 Compute Stats, Diag. #    224  SIvice    vol(   0 ): 3.508E+14  Parms: VV      M1      
 Compute Stats, Diag. #    225  SItaux    vol(   0 ): 3.513E+14  Parms: UU      U1      
 Compute Stats, Diag. #    226  SItauy    vol(   0 ): 3.508E+14  Parms: VV      U1      
 cg2d: Sum(rhs),rhsMax =  -2.13567439590506E+00  2.92822456255253E-01
 Compute Stats, Diag. #    214  SIarea    vol(   0 ): 3.580E+14  Parms: SM      M1      
 Compute Stats, Diag. #    217  SIheff    vol(   0 ): 3.580E+14  Parms: SM      M1      
 Compute Stats, Diag. #    219  SIhsnow   vol(   0 ): 3.580E+14  Parms: SM      M1      
 Compute Stats, Diag. #     83  sIceLoad  vol(   0 ): 3.580E+14  Parms: SM      U1      
 Compute Stats, Diag. #    223  SIuice    vol(   0 ): 3.513E+14  Parms: UU      M1      
 Compute Stats, Diag. #    224  SIvice    vol(   0 ): 3.508E+14  Parms: VV      M1      
 Compute Stats, Diag. #    225  SItaux    vol(   0 ): 3.513E+14  Parms: UU      U1      
 Compute Stats, Diag. #    226  SItauy    vol(   0 ): 3.508E+14  Parms: VV      U1      
 cg2d: Sum(rhs),rhsMax =  -2.18599556805383E+00  2.92822113217819E-01
 Computing Diagnostic #     86  oceQnet      Counter:       4   Parms: SM      U1      
 Computing Diagnostic #     87  oceQsw       Counter:       4   Parms: SM      U1      
 Computing Diagnostic #     84  oceFWflx     Counter:       4   Parms: SM      U1      
 Computing Diagnostic #     85  oceSflux     Counter:       4   Parms: SM      U1      
 Computing Diagnostic #     80  oceTAUX      Counter:       4   Parms: UU      U1      
           Vector  Mate for  oceTAUX      Diagnostic #     81  oceTAUY  exists 
 Computing Diagnostic #     81  oceTAUY      Counter:       4   Parms: VV      U1      
           Vector  Mate for  oceTAUY      Diagnostic #     80  oceTAUX  exists 
 Computing Diagnostic #     26  THETA        Counter:       4   Parms: SMR     MR      
 Computing Diagnostic #     27  SALT         Counter:       4   Parms: SMR     MR      
 Computing Diagnostic #     30  UVEL         Counter:       4   Parms: UUR     MR      
           Vector  Mate for  UVEL         Diagnostic #     31  VVEL     exists 
 Computing Diagnostic #     31  VVEL         Counter:       4   Parms: VVR     MR      
           Vector  Mate for  VVEL         Diagnostic #     30  UVEL     exists 
 Computing Diagnostic #    214  SIarea       Counter:       4   Parms: SM      M1      
 Computing Diagnostic #    217  SIheff       Counter:       4   Parms: SM      M1      
 Computing Diagnostic #    219  SIhsnow      Counter:       4   Parms: SM      M1      
 Computing Diagnostic #     83  sIceLoad     Counter:       4   Parms: SM      U1      
 Computing Diagnostic #    223  SIuice       Counter:       4   Parms: UU      M1      
           Vector  Mate for  SIuice       Diagnostic #    224  SIvice   exists 
 Computing Diagnostic #    224  SIvice       Counter:       4   Parms: VV      M1      
           Vector  Mate for  SIvice       Diagnostic #    223  SIuice   exists 
 Computing Diagnostic #    225  SItaux       Counter:       4   Parms: UU      U1      
           Vector  Mate for  SItaux       Diagnostic #    226  SItauy   exists 
 Computing Diagnostic #    226  SItauy       Counter:       4   Parms: VV      U1      
           Vector  Mate for  SItauy       Diagnostic #    225  SItaux   exists 
 Computing Diagnostic #    285  SIareaN      Counter:       4   Parms: SM      MX      
 Computing Diagnostic #    284  SIheffN      Counter:       4   Parms: SM      MX      
 Computing Diagnostic #    286  SIhsnowN     Counter:       4   Parms: SM      MX      
 Compute Stats, Diag. #    214  SIarea    vol(   0 ): 3.580E+14  Parms: SM      M1      
 Compute Stats, Diag. #    217  SIheff    vol(   0 ): 3.580E+14  Parms: SM      M1      
 Compute Stats, Diag. #    219  SIhsnow   vol(   0 ): 3.580E+14  Parms: SM      M1      
 Compute Stats, Diag. #     83  sIceLoad  vol(   0 ): 3.580E+14  Parms: SM      U1      
 Compute Stats, Diag. #    223  SIuice    vol(   0 ): 3.513E+14  Parms: UU      M1      
 Compute Stats, Diag. #    224  SIvice    vol(   0 ): 3.508E+14  Parms: VV      M1      
 Compute Stats, Diag. #    225  SItaux    vol(   0 ): 3.513E+14  Parms: UU      U1      
 Compute Stats, Diag. #    226  SItauy    vol(   0 ): 3.508E+14  Parms: VV      U1      
 cg2d: Sum(rhs),rhsMax =  -2.24108670074276E+00  2.92825107649851E-01
 Compute Stats, Diag. #    214  SIarea    vol(   0 ): 3.580E+14  Parms: SM      M1      
 Compute Stats, Diag. #    217  SIheff    vol(   0 ): 3.580E+14  Parms: SM      M1      
 Compute Stats, Diag. #    219  SIhsnow   vol(   0 ): 3.580E+14  Parms: SM      M1      
 Compute Stats, Diag. #     83  sIceLoad  vol(   0 ): 3.580E+14  Parms: SM      U1      
 Compute Stats, Diag. #    223  SIuice    vol(   0 ): 3.513E+14  Parms: UU      M1      
 Compute Stats, Diag. #    224  SIvice    vol(   0 ): 3.508E+14  Parms: VV      M1      
 Compute Stats, Diag. #    225  SItaux    vol(   0 ): 3.513E+14  Parms: UU      U1      
 Compute Stats, Diag. #    226  SItauy    vol(   0 ): 3.508E+14  Parms: VV      U1      
 cg2d: Sum(rhs),rhsMax =  -2.30467387415445E+00  2.92831388589200E-01
 Compute Stats, Diag. #    214  SIarea    vol(   0 ): 3.580E+14  Parms: SM      M1      
 Compute Stats, Diag. #    217  SIheff    vol(   0 ): 3.580E+14  Parms: SM      M1      
 Compute Stats, Diag. #    219  SIhsnow   vol(   0 ): 3.580E+14  Parms: SM      M1      
 Compute Stats, Diag. #     83  sIceLoad  vol(   0 ): 3.580E+14  Parms: SM      U1      
 Compute Stats, Diag. #    223  SIuice    vol(   0 ): 3.513E+14  Parms: UU      M1      
 Compute Stats, Diag. #    224  SIvice    vol(   0 ): 3.508E+14  Parms: VV      M1      
 Compute Stats, Diag. #    225  SItaux    vol(   0 ): 3.513E+14  Parms: UU      U1      
 Compute Stats, Diag. #    226  SItauy    vol(   0 ): 3.508E+14  Parms: VV      U1      
 cg2d: Sum(rhs),rhsMax =  -2.37035366256811E+00  2.92840986558703E-01
 Compute Stats, Diag. #    214  SIarea    vol(   0 ): 3.580E+14  Parms: SM      M1      
 Compute Stats, Diag. #    217  SIheff    vol(   0 ): 3.580E+14  Parms: SM      M1      
 Compute Stats, Diag. #    219  SIhsnow   vol(   0 ): 3.580E+14  Parms: SM      M1      
 Compute Stats, Diag. #     83  sIceLoad  vol(   0 ): 3.580E+14  Parms: SM      U1      
 Compute Stats, Diag. #    223  SIuice    vol(   0 ): 3.513E+14  Parms: UU      M1      
 Compute Stats, Diag. #    224  SIvice    vol(   0 ): 3.508E+14  Parms: VV      M1      
 Compute Stats, Diag. #    225  SItaux    vol(   0 ): 3.513E+14  Parms: UU      U1      
 Compute Stats, Diag. #    226  SItauy    vol(   0 ): 3.508E+14  Parms: VV      U1      
 cg2d: Sum(rhs),rhsMax =  -2.44527395988079E+00  2.92853406415089E-01
(PID.TID 0000.0001)      cg2d_init_res =   4.65834684250540E-02
(PID.TID 0000.0001)      cg2d_iters(min,last) =      -1      24
(PID.TID 0000.0001)      cg2d_last_res =   2.51659272614387E-05
(PID.TID 0000.0001) // =======================================================
(PID.TID 0000.0001) // Begin MONITOR dynamic field statistics
(PID.TID 0000.0001) // =======================================================
(PID.TID 0000.0001) %MON time_tsnumber                =                   704
(PID.TID 0000.0001) %MON time_secondsf                =   6.3360000000000E+05
(PID.TID 0000.0001) %MON dynstat_eta_max              =   1.0363612801645E+00
(PID.TID 0000.0001) %MON dynstat_eta_min              =  -1.8557481841298E+00
(PID.TID 0000.0001) %MON dynstat_eta_mean             =   7.7351825037847E-05
(PID.TID 0000.0001) %MON dynstat_eta_sd               =   6.3471444090644E-01
(PID.TID 0000.0001) %MON dynstat_eta_del2             =   5.3297875773202E-05
(PID.TID 0000.0001) %MON dynstat_uvel_max             =   7.1667079201743E-01
(PID.TID 0000.0001) %MON dynstat_uvel_min             =  -6.5982884188193E-01
(PID.TID 0000.0001) %MON dynstat_uvel_mean            =   1.3849322883081E-03
(PID.TID 0000.0001) %MON dynstat_uvel_sd              =   1.8611749230353E-02
(PID.TID 0000.0001) %MON dynstat_uvel_del2            =   7.2529554121397E-06
(PID.TID 0000.0001) %MON dynstat_vvel_max             =   5.0242490896080E-01
(PID.TID 0000.0001) %MON dynstat_vvel_min             =  -8.7986692960261E-01
(PID.TID 0000.0001) %MON dynstat_vvel_mean            =   1.1279834075625E-03
(PID.TID 0000.0001) %MON dynstat_vvel_sd              =   1.9419875558101E-02
(PID.TID 0000.0001) %MON dynstat_vvel_del2            =   7.3155073715494E-06
(PID.TID 0000.0001) %MON dynstat_wvel_max             =   3.7926742752731E-04
(PID.TID 0000.0001) %MON dynstat_wvel_min             =  -8.5205629018431E-04
(PID.TID 0000.0001) %MON dynstat_wvel_mean            =   7.4486893068356E-09
(PID.TID 0000.0001) %MON dynstat_wvel_sd              =   1.9938619940742E-05
(PID.TID 0000.0001) %MON dynstat_wvel_del2            =   1.4444026161578E-08
(PID.TID 0000.0001) %MON dynstat_theta_max            =   3.2168381079675E+01
(PID.TID 0000.0001) %MON dynstat_theta_min            =  -2.0400356800843E+00
(PID.TID 0000.0001) %MON dynstat_theta_mean           =   3.5903230893244E+00
(PID.TID 0000.0001) %MON dynstat_theta_sd             =   4.4367834764899E+00
(PID.TID 0000.0001) %MON dynstat_theta_del2           =   9.2427329024348E-05
(PID.TID 0000.0001) %MON dynstat_salt_max             =   4.0711554195118E+01
(PID.TID 0000.0001) %MON dynstat_salt_min             =   7.0475460102533E+00
(PID.TID 0000.0001) %MON dynstat_salt_mean            =   3.4725570922417E+01
(PID.TID 0000.0001) %MON dynstat_salt_sd              =   3.7705300350508E-01
(PID.TID 0000.0001) %MON dynstat_salt_del2            =   3.5613834333113E-05
(PID.TID 0000.0001) %MON dynstat_sst_max              =   3.2168381079675E+01
(PID.TID 0000.0001) %MON dynstat_sst_min              =  -1.8107628766740E+00
(PID.TID 0000.0001) %MON dynstat_sst_mean             =   1.8484889186529E+01
(PID.TID 0000.0001) %MON dynstat_sst_sd               =   1.0245408519943E+01
(PID.TID 0000.0001) %MON dynstat_sst_del2             =   8.0211260698867E-04
(PID.TID 0000.0001) %MON dynstat_sss_max              =   3.9103895430728E+01
(PID.TID 0000.0001) %MON dynstat_sss_min              =   7.0475460102533E+00
(PID.TID 0000.0001) %MON dynstat_sss_mean             =   3.4700158690349E+01
(PID.TID 0000.0001) %MON dynstat_sss_sd               =   1.1692876535172E+00
(PID.TID 0000.0001) %MON dynstat_sss_del2             =   1.1018537692750E-03
(PID.TID 0000.0001) %MON forcing_qnet_max             =   8.1846539306641E+02
(PID.TID 0000.0001) %MON forcing_qnet_min             =  -6.8407061767578E+02
(PID.TID 0000.0001) %MON forcing_qnet_mean            =   2.4544429727977E+01
(PID.TID 0000.0001) %MON forcing_qnet_sd              =   1.7167306882095E+02
(PID.TID 0000.0001) %MON forcing_qnet_del2            =   3.1483150034574E-01
(PID.TID 0000.0001) %MON forcing_qsw_max              =   0.0000000000000E+00
(PID.TID 0000.0001) %MON forcing_qsw_min              =  -1.0980817963432E+02
(PID.TID 0000.0001) %MON forcing_qsw_mean             =  -1.6525627699001E+01
(PID.TID 0000.0001) %MON forcing_qsw_sd               =   2.5915530893221E+01
(PID.TID 0000.0001) %MON forcing_qsw_del2             =   2.1417292516929E-02
(PID.TID 0000.0001) %MON forcing_empmr_max            =   8.0525717930868E-04
(PID.TID 0000.0001) %MON forcing_empmr_min            =  -6.8614639341831E-02
(PID.TID 0000.0001) %MON forcing_empmr_mean           =  -2.7096637374847E-06
(PID.TID 0000.0001) %MON forcing_empmr_sd             =   3.1794616135942E-04
(PID.TID 0000.0001) %MON forcing_empmr_del2           =   3.8065279595278E-06
(PID.TID 0000.0001) %MON forcing_fu_max               =   6.4086881279945E-01
(PID.TID 0000.0001) %MON forcing_fu_min               =  -7.5367122888565E-01
(PID.TID 0000.0001) %MON forcing_fu_mean              =   3.4650919068494E-03
(PID.TID 0000.0001) %MON forcing_fu_sd                =   9.3660236256592E-02
(PID.TID 0000.0001) %MON forcing_fu_del2              =   1.2822234086146E-04
(PID.TID 0000.0001) %MON forcing_fv_max               =   6.5036281943321E-01
(PID.TID 0000.0001) %MON forcing_fv_min               =  -9.0404197573662E-01
(PID.TID 0000.0001) %MON forcing_fv_mean              =  -1.0864803190372E-02
(PID.TID 0000.0001) %MON forcing_fv_sd                =   1.0394581100025E-01
(PID.TID 0000.0001) %MON forcing_fv_del2              =   1.3179945811081E-04
(PID.TID 0000.0001) %MON trAdv_CFL_u_max              =   1.0198864945450E-02
(PID.TID 0000.0001) %MON trAdv_CFL_v_max              =   1.1861930164026E-02
(PID.TID 0000.0001) %MON trAdv_CFL_w_max              =   2.0245253789286E-02
(PID.TID 0000.0001) %MON advcfl_uvel_max              =   7.2847177527169E-03
(PID.TID 0000.0001) %MON advcfl_vvel_max              =   1.0236391052654E-02
(PID.TID 0000.0001) %MON advcfl_wvel_max              =   1.9325569732625E-02
(PID.TID 0000.0001) %MON advcfl_W_hf_max              =   1.9390543569075E-02
(PID.TID 0000.0001) %MON pe_b_mean                    =   5.2992576408651E-04
(PID.TID 0000.0001) %MON ke_max                       =   3.9301712103688E-01
(PID.TID 0000.0001) %MON ke_mean                      =   3.5041932995112E-04
(PID.TID 0000.0001) %MON ke_vol                       =   1.3349979037838E+18
(PID.TID 0000.0001) %MON vort_r_min                   =  -1.3102722100490E-05
(PID.TID 0000.0001) %MON vort_r_max                   =   1.7649038489930E-05
(PID.TID 0000.0001) %MON vort_a_mean                  =  -1.9727864647440E-05
(PID.TID 0000.0001) %MON vort_a_sd                    =   7.4542981574006E-05
(PID.TID 0000.0001) %MON vort_p_mean                  =  -2.1760533121018E-05
(PID.TID 0000.0001) %MON vort_p_sd                    =   9.7245529735605E-05
(PID.TID 0000.0001) %MON surfExpan_theta_mean         =   2.0319748149942E-07
(PID.TID 0000.0001) %MON surfExpan_salt_mean          =   3.9064925784399E-08
(PID.TID 0000.0001) // =======================================================
(PID.TID 0000.0001) // End MONITOR dynamic field statistics
(PID.TID 0000.0001) // =======================================================
(PID.TID 0000.0001) // =======================================================
(PID.TID 0000.0001) // Begin MONITOR SEAICE statistics
(PID.TID 0000.0001) // =======================================================
(PID.TID 0000.0001) %MON seaice_tsnumber              =                   704
(PID.TID 0000.0001) %MON seaice_time_sec              =   6.3360000000000E+05
(PID.TID 0000.0001) %MON seaice_uice_max              =   4.0000000000000E-01
(PID.TID 0000.0001) %MON seaice_uice_min              =  -4.0000000000000E-01
(PID.TID 0000.0001) %MON seaice_uice_mean             =  -8.3054598624025E-03
(PID.TID 0000.0001) %MON seaice_uice_sd               =   1.9802383574176E-01
(PID.TID 0000.0001) %MON seaice_uice_del2             =   2.2931571122150E-04
(PID.TID 0000.0001) %MON seaice_vice_max              =   4.0000000000000E-01
(PID.TID 0000.0001) %MON seaice_vice_min              =  -4.0000000000000E-01
(PID.TID 0000.0001) %MON seaice_vice_mean             =  -2.1960776359499E-02
(PID.TID 0000.0001) %MON seaice_vice_sd               =   2.1302038025672E-01
(PID.TID 0000.0001) %MON seaice_vice_del2             =   2.3932563818061E-04
(PID.TID 0000.0001) %MON seaice_area_max              =   1.0000000000000E+00
(PID.TID 0000.0001) %MON seaice_area_min              =   0.0000000000000E+00
(PID.TID 0000.0001) %MON seaice_area_mean             =   6.6048326841231E-02
(PID.TID 0000.0001) %MON seaice_area_sd               =   2.3014324588213E-01
(PID.TID 0000.0001) %MON seaice_area_del2             =   3.9536304602372E-04
(PID.TID 0000.0001) %MON seaice_heff_max              =   2.5012991637574E+01
(PID.TID 0000.0001) %MON seaice_heff_min              =   0.0000000000000E+00
(PID.TID 0000.0001) %MON seaice_heff_mean             =   2.1283727344735E-01
(PID.TID 0000.0001) %MON seaice_heff_sd               =   1.0667722998911E+00
(PID.TID 0000.0001) %MON seaice_heff_del2             =   3.8461939876190E-03
(PID.TID 0000.0001) %MON seaice_hsnow_max             =   8.2617345738108E+00
(PID.TID 0000.0001) %MON seaice_hsnow_min             =   0.0000000000000E+00
(PID.TID 0000.0001) %MON seaice_hsnow_mean            =   2.4077453198104E-02
(PID.TID 0000.0001) %MON seaice_hsnow_sd              =   1.5626453290147E-01
(PID.TID 0000.0001) %MON seaice_hsnow_del2            =   1.2402512174219E-03
(PID.TID 0000.0001) // =======================================================
(PID.TID 0000.0001) // End MONITOR SEAICE statistics
(PID.TID 0000.0001) // =======================================================
 Computing Diagnostic #     86  oceQnet      Counter:       4   Parms: SM      U1      
 Computing Diagnostic #     87  oceQsw       Counter:       4   Parms: SM      U1      
 Computing Diagnostic #     84  oceFWflx     Counter:       4   Parms: SM      U1      
 Computing Diagnostic #     85  oceSflux     Counter:       4   Parms: SM      U1      
 Computing Diagnostic #     80  oceTAUX      Counter:       4   Parms: UU      U1      
           Vector  Mate for  oceTAUX      Diagnostic #     81  oceTAUY  exists 
 Computing Diagnostic #     81  oceTAUY      Counter:       4   Parms: VV      U1      
           Vector  Mate for  oceTAUY      Diagnostic #     80  oceTAUX  exists 
 Computing Diagnostic #     26  THETA        Counter:       4   Parms: SMR     MR      
 Computing Diagnostic #     27  SALT         Counter:       4   Parms: SMR     MR      
 Computing Diagnostic #     30  UVEL         Counter:       4   Parms: UUR     MR      
           Vector  Mate for  UVEL         Diagnostic #     31  VVEL     exists 
 Computing Diagnostic #     31  VVEL         Counter:       4   Parms: VVR     MR      
           Vector  Mate for  VVEL         Diagnostic #     30  UVEL     exists 
 Computing Diagnostic #    214  SIarea       Counter:       4   Parms: SM      M1      
 Computing Diagnostic #    217  SIheff       Counter:       4   Parms: SM      M1      
 Computing Diagnostic #    219  SIhsnow      Counter:       4   Parms: SM      M1      
 Computing Diagnostic #     83  sIceLoad     Counter:       4   Parms: SM      U1      
 Computing Diagnostic #    223  SIuice       Counter:       4   Parms: UU      M1      
           Vector  Mate for  SIuice       Diagnostic #    224  SIvice   exists 
 Computing Diagnostic #    224  SIvice       Counter:       4   Parms: VV      M1      
           Vector  Mate for  SIvice       Diagnostic #    223  SIuice   exists 
 Computing Diagnostic #    225  SItaux       Counter:       4   Parms: UU      U1      
           Vector  Mate for  SItaux       Diagnostic #    226  SItauy   exists 
 Computing Diagnostic #    226  SItauy       Counter:       4   Parms: VV      U1      
           Vector  Mate for  SItauy       Diagnostic #    225  SItaux   exists 
 Computing Diagnostic #    285  SIareaN      Counter:       4   Parms: SM      MX      
 Computing Diagnostic #    284  SIheffN      Counter:       4   Parms: SM      MX      
 Computing Diagnostic #    286  SIhsnowN     Counter:       4   Parms: SM      MX      
 Compute Stats, Diag. #    214  SIarea    vol(   0 ): 3.580E+14  Parms: SM      M1      
 Compute Stats, Diag. #    217  SIheff    vol(   0 ): 3.580E+14  Parms: SM      M1      
 Compute Stats, Diag. #    219  SIhsnow   vol(   0 ): 3.580E+14  Parms: SM      M1      
 Compute Stats, Diag. #     83  sIceLoad  vol(   0 ): 3.580E+14  Parms: SM      U1      
 Compute Stats, Diag. #    223  SIuice    vol(   0 ): 3.513E+14  Parms: UU      M1      
 Compute Stats, Diag. #    224  SIvice    vol(   0 ): 3.508E+14  Parms: VV      M1      
 Compute Stats, Diag. #    225  SItaux    vol(   0 ): 3.513E+14  Parms: UU      U1      
 Compute Stats, Diag. #    226  SItauy    vol(   0 ): 3.508E+14  Parms: VV      U1      
 cg2d: Sum(rhs),rhsMax =  -2.52142360106251E+00  2.92868402111688E-01
 Compute Stats, Diag. #    214  SIarea    vol(   0 ): 3.580E+14  Parms: SM      M1      
 Compute Stats, Diag. #    217  SIheff    vol(   0 ): 3.580E+14  Parms: SM      M1      
 Compute Stats, Diag. #    219  SIhsnow   vol(   0 ): 3.580E+14  Parms: SM      M1      
 Compute Stats, Diag. #     83  sIceLoad  vol(   0 ): 3.580E+14  Parms: SM      U1      
 Compute Stats, Diag. #    223  SIuice    vol(   0 ): 3.513E+14  Parms: UU      M1      
 Compute Stats, Diag. #    224  SIvice    vol(   0 ): 3.508E+14  Parms: VV      M1      
 Compute Stats, Diag. #    225  SItaux    vol(   0 ): 3.513E+14  Parms: UU      U1      
 Compute Stats, Diag. #    226  SItauy    vol(   0 ): 3.508E+14  Parms: VV      U1      
 cg2d: Sum(rhs),rhsMax =  -2.59808656394294E+00  2.92885337862980E-01
 Compute Stats, Diag. #    214  SIarea    vol(   0 ): 3.580E+14  Parms: SM      M1      
 Compute Stats, Diag. #    217  SIheff    vol(   0 ): 3.580E+14  Parms: SM      M1      
 Compute Stats, Diag. #    219  SIhsnow   vol(   0 ): 3.580E+14  Parms: SM      M1      
 Compute Stats, Diag. #     83  sIceLoad  vol(   0 ): 3.580E+14  Parms: SM      U1      
 Compute Stats, Diag. #    223  SIuice    vol(   0 ): 3.513E+14  Parms: UU      M1      
 Compute Stats, Diag. #    224  SIvice    vol(   0 ): 3.508E+14  Parms: VV      M1      
 Compute Stats, Diag. #    225  SItaux    vol(   0 ): 3.513E+14  Parms: UU      U1      
 Compute Stats, Diag. #    226  SItauy    vol(   0 ): 3.508E+14  Parms: VV      U1      
 cg2d: Sum(rhs),rhsMax =  -2.68859230158942E+00  2.92904122626482E-01
 Compute Stats, Diag. #    214  SIarea    vol(   0 ): 3.580E+14  Parms: SM      M1      
 Compute Stats, Diag. #    217  SIheff    vol(   0 ): 3.580E+14  Parms: SM      M1      
 Compute Stats, Diag. #    219  SIhsnow   vol(   0 ): 3.580E+14  Parms: SM      M1      
 Compute Stats, Diag. #     83  sIceLoad  vol(   0 ): 3.580E+14  Parms: SM      U1      
 Compute Stats, Diag. #    223  SIuice    vol(   0 ): 3.513E+14  Parms: UU      M1      
 Compute Stats, Diag. #    224  SIvice    vol(   0 ): 3.508E+14  Parms: VV      M1      
 Compute Stats, Diag. #    225  SItaux    vol(   0 ): 3.513E+14  Parms: UU      U1      
 Compute Stats, Diag. #    226  SItauy    vol(   0 ): 3.508E+14  Parms: VV      U1      
 cg2d: Sum(rhs),rhsMax =  -2.77495114194429E+00  2.92923907805891E-01
 Computing Diagnostic #     86  oceQnet      Counter:       4   Parms: SM      U1      
 Computing Diagnostic #     87  oceQsw       Counter:       4   Parms: SM      U1      
 Computing Diagnostic #     84  oceFWflx     Counter:       4   Parms: SM      U1      
 Computing Diagnostic #     85  oceSflux     Counter:       4   Parms: SM      U1      
 Computing Diagnostic #     80  oceTAUX      Counter:       4   Parms: UU      U1      
           Vector  Mate for  oceTAUX      Diagnostic #     81  oceTAUY  exists 
 Computing Diagnostic #     81  oceTAUY      Counter:       4   Parms: VV      U1      
           Vector  Mate for  oceTAUY      Diagnostic #     80  oceTAUX  exists 
 Computing Diagnostic #     26  THETA        Counter:       4   Parms: SMR     MR      
 Computing Diagnostic #     27  SALT         Counter:       4   Parms: SMR     MR      
 Computing Diagnostic #     30  UVEL         Counter:       4   Parms: UUR     MR      
           Vector  Mate for  UVEL         Diagnostic #     31  VVEL     exists 
 Computing Diagnostic #     31  VVEL         Counter:       4   Parms: VVR     MR      
           Vector  Mate for  VVEL         Diagnostic #     30  UVEL     exists 
 Computing Diagnostic #    214  SIarea       Counter:       4   Parms: SM      M1      
 Computing Diagnostic #    217  SIheff       Counter:       4   Parms: SM      M1      
 Computing Diagnostic #    219  SIhsnow      Counter:       4   Parms: SM      M1      
 Computing Diagnostic #     83  sIceLoad     Counter:       4   Parms: SM      U1      
 Computing Diagnostic #    223  SIuice       Counter:       4   Parms: UU      M1      
           Vector  Mate for  SIuice       Diagnostic #    224  SIvice   exists 
 Computing Diagnostic #    224  SIvice       Counter:       4   Parms: VV      M1      
           Vector  Mate for  SIvice       Diagnostic #    223  SIuice   exists 
 Computing Diagnostic #    225  SItaux       Counter:       4   Parms: UU      U1      
           Vector  Mate for  SItaux       Diagnostic #    226  SItauy   exists 
 Computing Diagnostic #    226  SItauy       Counter:       4   Parms: VV      U1      
           Vector  Mate for  SItauy       Diagnostic #    225  SItaux   exists 
 Computing Diagnostic #    285  SIareaN      Counter:       4   Parms: SM      MX      
 Computing Diagnostic #    284  SIheffN      Counter:       4   Parms: SM      MX      
 Computing Diagnostic #    286  SIhsnowN     Counter:       4   Parms: SM      MX      
 Compute Stats, Diag. #    214  SIarea    vol(   0 ): 3.580E+14  Parms: SM      M1      
 Compute Stats, Diag. #    217  SIheff    vol(   0 ): 3.580E+14  Parms: SM      M1      
 Compute Stats, Diag. #    219  SIhsnow   vol(   0 ): 3.580E+14  Parms: SM      M1      
 Compute Stats, Diag. #     83  sIceLoad  vol(   0 ): 3.580E+14  Parms: SM      U1      
 Compute Stats, Diag. #    223  SIuice    vol(   0 ): 3.513E+14  Parms: UU      M1      
 Compute Stats, Diag. #    224  SIvice    vol(   0 ): 3.508E+14  Parms: VV      M1      
 Compute Stats, Diag. #    225  SItaux    vol(   0 ): 3.513E+14  Parms: UU      U1      
 Compute Stats, Diag. #    226  SItauy    vol(   0 ): 3.508E+14  Parms: VV      U1      
 cg2d: Sum(rhs),rhsMax =  -2.87046772977949E+00  2.92944107781821E-01
 Compute Stats, Diag. #    214  SIarea    vol(   0 ): 3.580E+14  Parms: SM      M1      
 Compute Stats, Diag. #    217  SIheff    vol(   0 ): 3.580E+14  Parms: SM      M1      
 Compute Stats, Diag. #    219  SIhsnow   vol(   0 ): 3.580E+14  Parms: SM      M1      
 Compute Stats, Diag. #     83  sIceLoad  vol(   0 ): 3.580E+14  Parms: SM      U1      
 Compute Stats, Diag. #    223  SIuice    vol(   0 ): 3.513E+14  Parms: UU      M1      
 Compute Stats, Diag. #    224  SIvice    vol(   0 ): 3.508E+14  Parms: VV      M1      
 Compute Stats, Diag. #    225  SItaux    vol(   0 ): 3.513E+14  Parms: UU      U1      
 Compute Stats, Diag. #    226  SItauy    vol(   0 ): 3.508E+14  Parms: VV      U1      
 cg2d: Sum(rhs),rhsMax =  -2.96903448577110E+00  2.92964272641524E-01
 Compute Stats, Diag. #    214  SIarea    vol(   0 ): 3.580E+14  Parms: SM      M1      
 Compute Stats, Diag. #    217  SIheff    vol(   0 ): 3.580E+14  Parms: SM      M1      
 Compute Stats, Diag. #    219  SIhsnow   vol(   0 ): 3.580E+14  Parms: SM      M1      
 Compute Stats, Diag. #     83  sIceLoad  vol(   0 ): 3.580E+14  Parms: SM      U1      
 Compute Stats, Diag. #    223  SIuice    vol(   0 ): 3.513E+14  Parms: UU      M1      
 Compute Stats, Diag. #    224  SIvice    vol(   0 ): 3.508E+14  Parms: VV      M1      
 Compute Stats, Diag. #    225  SItaux    vol(   0 ): 3.513E+14  Parms: UU      U1      
 Compute Stats, Diag. #    226  SItauy    vol(   0 ): 3.508E+14  Parms: VV      U1      
 cg2d: Sum(rhs),rhsMax =  -3.07601034695635E+00  2.92983926553638E-01
 Compute Stats, Diag. #    214  SIarea    vol(   0 ): 3.580E+14  Parms: SM      M1      
 Compute Stats, Diag. #    217  SIheff    vol(   0 ): 3.580E+14  Parms: SM      M1      
 Compute Stats, Diag. #    219  SIhsnow   vol(   0 ): 3.580E+14  Parms: SM      M1      
 Compute Stats, Diag. #     83  sIceLoad  vol(   0 ): 3.580E+14  Parms: SM      U1      
 Compute Stats, Diag. #    223  SIuice    vol(   0 ): 3.513E+14  Parms: UU      M1      
 Compute Stats, Diag. #    224  SIvice    vol(   0 ): 3.508E+14  Parms: VV      M1      
 Compute Stats, Diag. #    225  SItaux    vol(   0 ): 3.513E+14  Parms: UU      U1      
 Compute Stats, Diag. #    226  SItauy    vol(   0 ): 3.508E+14  Parms: VV      U1      
 cg2d: Sum(rhs),rhsMax =  -3.18278331935946E+00  2.93002578350665E-01
(PID.TID 0000.0001)      cg2d_init_res =   4.41525485027041E-02
(PID.TID 0000.0001)      cg2d_iters(min,last) =      -1      23
(PID.TID 0000.0001)      cg2d_last_res =   2.62030408281154E-05
(PID.TID 0000.0001) // =======================================================
(PID.TID 0000.0001) // Begin MONITOR dynamic field statistics
(PID.TID 0000.0001) // =======================================================
(PID.TID 0000.0001) %MON time_tsnumber                =                   712
(PID.TID 0000.0001) %MON time_secondsf                =   6.4080000000000E+05
(PID.TID 0000.0001) %MON dynstat_eta_max              =   1.0372887671322E+00
(PID.TID 0000.0001) %MON dynstat_eta_min              =  -1.8570452454706E+00
(PID.TID 0000.0001) %MON dynstat_eta_mean             =   1.0068160152671E-04
(PID.TID 0000.0001) %MON dynstat_eta_sd               =   6.3478595764496E-01
(PID.TID 0000.0001) %MON dynstat_eta_del2             =   5.3268890953762E-05
(PID.TID 0000.0001) %MON dynstat_uvel_max             =   7.1470677857222E-01
(PID.TID 0000.0001) %MON dynstat_uvel_min             =  -6.6274701565025E-01
(PID.TID 0000.0001) %MON dynstat_uvel_mean            =   1.3831046406751E-03
(PID.TID 0000.0001) %MON dynstat_uvel_sd              =   1.8612314015556E-02
(PID.TID 0000.0001) %MON dynstat_uvel_del2            =   7.2350426666929E-06
(PID.TID 0000.0001) %MON dynstat_vvel_max             =   4.9746287738441E-01
(PID.TID 0000.0001) %MON dynstat_vvel_min             =  -8.7931850231549E-01
(PID.TID 0000.0001) %MON dynstat_vvel_mean            =   1.1276841409986E-03
(PID.TID 0000.0001) %MON dynstat_vvel_sd              =   1.9408621138102E-02
(PID.TID 0000.0001) %MON dynstat_vvel_del2            =   7.3047225201219E-06
(PID.TID 0000.0001) %MON dynstat_wvel_max             =   3.8412842174104E-04
(PID.TID 0000.0001) %MON dynstat_wvel_min             =  -8.5132162535807E-04
(PID.TID 0000.0001) %MON dynstat_wvel_mean            =   5.7535746386474E-09
(PID.TID 0000.0001) %MON dynstat_wvel_sd              =   1.9843881873355E-05
(PID.TID 0000.0001) %MON dynstat_wvel_del2            =   1.4396414625470E-08
(PID.TID 0000.0001) %MON dynstat_theta_max            =   3.2181608758684E+01
(PID.TID 0000.0001) %MON dynstat_theta_min            =  -2.0400140522090E+00
(PID.TID 0000.0001) %MON dynstat_theta_mean           =   3.5903059270696E+00
(PID.TID 0000.0001) %MON dynstat_theta_sd             =   4.4367358694116E+00
(PID.TID 0000.0001) %MON dynstat_theta_del2           =   9.2337490118045E-05
(PID.TID 0000.0001) %MON dynstat_salt_max             =   4.0711553440092E+01
(PID.TID 0000.0001) %MON dynstat_salt_min             =   6.9269691248277E+00
(PID.TID 0000.0001) %MON dynstat_salt_mean            =   3.4725570749008E+01
(PID.TID 0000.0001) %MON dynstat_salt_sd              =   3.7705510401438E-01
(PID.TID 0000.0001) %MON dynstat_salt_del2            =   3.5803918759586E-05
(PID.TID 0000.0001) %MON dynstat_sst_max              =   3.2181608758684E+01
(PID.TID 0000.0001) %MON dynstat_sst_min              =  -1.8097440835257E+00
(PID.TID 0000.0001) %MON dynstat_sst_mean             =   1.8479965050105E+01
(PID.TID 0000.0001) %MON dynstat_sst_sd               =   1.0245184328057E+01
(PID.TID 0000.0001) %MON dynstat_sst_del2             =   8.0117431111483E-04
(PID.TID 0000.0001) %MON dynstat_sss_max              =   3.9103688153476E+01
(PID.TID 0000.0001) %MON dynstat_sss_min              =   6.9269691248277E+00
(PID.TID 0000.0001) %MON dynstat_sss_mean             =   3.4700111259688E+01
(PID.TID 0000.0001) %MON dynstat_sss_sd               =   1.1697247703584E+00
(PID.TID 0000.0001) %MON dynstat_sss_del2             =   1.1107584616590E-03
(PID.TID 0000.0001) %MON forcing_qnet_max             =   7.8265727384430E+02
(PID.TID 0000.0001) %MON forcing_qnet_min             =  -6.3531465154048E+02
(PID.TID 0000.0001) %MON forcing_qnet_mean            =   4.3198731620076E+01
(PID.TID 0000.0001) %MON forcing_qnet_sd              =   1.7075172731267E+02
(PID.TID 0000.0001) %MON forcing_qnet_del2            =   3.0288669621015E-01
(PID.TID 0000.0001) %MON forcing_qsw_max              =   0.0000000000000E+00
(PID.TID 0000.0001) %MON forcing_qsw_min              =  -1.0622082653584E+02
(PID.TID 0000.0001) %MON forcing_qsw_mean             =  -1.4214092630728E+01
(PID.TID 0000.0001) %MON forcing_qsw_sd               =   2.5960702765316E+01
(PID.TID 0000.0001) %MON forcing_qsw_del2             =   1.8999821072073E-02
(PID.TID 0000.0001) %MON forcing_empmr_max            =   1.2417263351381E-03
(PID.TID 0000.0001) %MON forcing_empmr_min            =  -7.3405519127846E-02
(PID.TID 0000.0001) %MON forcing_empmr_mean           =  -3.8616885121681E-06
(PID.TID 0000.0001) %MON forcing_empmr_sd             =   3.5397080187775E-04
(PID.TID 0000.0001) %MON forcing_empmr_del2           =   4.5093470487945E-06
(PID.TID 0000.0001) %MON forcing_fu_max               =   6.1692312359810E-01
(PID.TID 0000.0001) %MON forcing_fu_min               =  -7.1481069922447E-01
(PID.TID 0000.0001) %MON forcing_fu_mean              =   3.7694303792698E-03
(PID.TID 0000.0001) %MON forcing_fu_sd                =   9.3503520296750E-02
(PID.TID 0000.0001) %MON forcing_fu_del2              =   1.2741042153421E-04
(PID.TID 0000.0001) %MON forcing_fv_max               =   7.3244315385818E-01
(PID.TID 0000.0001) %MON forcing_fv_min               =  -8.7296792864799E-01
(PID.TID 0000.0001) %MON forcing_fv_mean              =  -1.1950607961583E-02
(PID.TID 0000.0001) %MON forcing_fv_sd                =   1.0412859435595E-01
(PID.TID 0000.0001) %MON forcing_fv_del2              =   1.3100535569019E-04
(PID.TID 0000.0001) %MON trAdv_CFL_u_max              =   1.0195779210370E-02
(PID.TID 0000.0001) %MON trAdv_CFL_v_max              =   1.2066800104988E-02
(PID.TID 0000.0001) %MON trAdv_CFL_w_max              =   1.9872422659355E-02
(PID.TID 0000.0001) %MON advcfl_uvel_max              =   7.2881698394849E-03
(PID.TID 0000.0001) %MON advcfl_vvel_max              =   1.0463294467122E-02
(PID.TID 0000.0001) %MON advcfl_wvel_max              =   1.9694687001196E-02
(PID.TID 0000.0001) %MON advcfl_W_hf_max              =   1.9761289027082E-02
(PID.TID 0000.0001) %MON pe_b_mean                    =   5.3004519235639E-04
(PID.TID 0000.0001) %MON ke_max                       =   3.9356737152689E-01
(PID.TID 0000.0001) %MON ke_mean                      =   3.5021594912193E-04
(PID.TID 0000.0001) %MON ke_vol                       =   1.3349979117755E+18
(PID.TID 0000.0001) %MON vort_r_min                   =  -1.3260139253501E-05
(PID.TID 0000.0001) %MON vort_r_max                   =   1.8094802798028E-05
(PID.TID 0000.0001) %MON vort_a_mean                  =  -1.9727864647440E-05
(PID.TID 0000.0001) %MON vort_a_sd                    =   7.4542981497478E-05
(PID.TID 0000.0001) %MON vort_p_mean                  =  -2.1760533054878E-05
(PID.TID 0000.0001) %MON vort_p_sd                    =   9.7245563487662E-05
(PID.TID 0000.0001) %MON surfExpan_theta_mean         =   1.5622029523253E-07
(PID.TID 0000.0001) %MON surfExpan_salt_mean          =   4.7775720541375E-08
(PID.TID 0000.0001) // =======================================================
(PID.TID 0000.0001) // End MONITOR dynamic field statistics
(PID.TID 0000.0001) // =======================================================
(PID.TID 0000.0001) // =======================================================
(PID.TID 0000.0001) // Begin MONITOR SEAICE statistics
(PID.TID 0000.0001) // =======================================================
(PID.TID 0000.0001) %MON seaice_tsnumber              =                   712
(PID.TID 0000.0001) %MON seaice_time_sec              =   6.4080000000000E+05
(PID.TID 0000.0001) %MON seaice_uice_max              =   4.0000000000000E-01
(PID.TID 0000.0001) %MON seaice_uice_min              =  -4.0000000000000E-01
(PID.TID 0000.0001) %MON seaice_uice_mean             =  -8.3054598624025E-03
(PID.TID 0000.0001) %MON seaice_uice_sd               =   1.9802383574176E-01
(PID.TID 0000.0001) %MON seaice_uice_del2             =   2.2931571122150E-04
(PID.TID 0000.0001) %MON seaice_vice_max              =   4.0000000000000E-01
(PID.TID 0000.0001) %MON seaice_vice_min              =  -4.0000000000000E-01
(PID.TID 0000.0001) %MON seaice_vice_mean             =  -2.1960776359499E-02
(PID.TID 0000.0001) %MON seaice_vice_sd               =   2.1302038025672E-01
(PID.TID 0000.0001) %MON seaice_vice_del2             =   2.3932563818061E-04
(PID.TID 0000.0001) %MON seaice_area_max              =   1.0000000000000E+00
(PID.TID 0000.0001) %MON seaice_area_min              =   0.0000000000000E+00
(PID.TID 0000.0001) %MON seaice_area_mean             =   6.6014044189996E-02
(PID.TID 0000.0001) %MON seaice_area_sd               =   2.3008088556902E-01
(PID.TID 0000.0001) %MON seaice_area_del2             =   3.9484077257375E-04
(PID.TID 0000.0001) %MON seaice_heff_max              =   2.5011013513897E+01
(PID.TID 0000.0001) %MON seaice_heff_min              =   0.0000000000000E+00
(PID.TID 0000.0001) %MON seaice_heff_mean             =   2.1280236646156E-01
(PID.TID 0000.0001) %MON seaice_heff_sd               =   1.0667398575538E+00
(PID.TID 0000.0001) %MON seaice_heff_del2             =   3.8455034606008E-03
(PID.TID 0000.0001) %MON seaice_hsnow_max             =   8.2610839455156E+00
(PID.TID 0000.0001) %MON seaice_hsnow_min             =   0.0000000000000E+00
(PID.TID 0000.0001) %MON seaice_hsnow_mean            =   2.4076963436039E-02
(PID.TID 0000.0001) %MON seaice_hsnow_sd              =   1.5625556202733E-01
(PID.TID 0000.0001) %MON seaice_hsnow_del2            =   1.2401356137394E-03
(PID.TID 0000.0001) // =======================================================
(PID.TID 0000.0001) // End MONITOR SEAICE statistics
(PID.TID 0000.0001) // =======================================================
 Computing Diagnostic #     86  oceQnet      Counter:       4   Parms: SM      U1      
 Computing Diagnostic #     87  oceQsw       Counter:       4   Parms: SM      U1      
 Computing Diagnostic #     84  oceFWflx     Counter:       4   Parms: SM      U1      
 Computing Diagnostic #     85  oceSflux     Counter:       4   Parms: SM      U1      
 Computing Diagnostic #     80  oceTAUX      Counter:       4   Parms: UU      U1      
           Vector  Mate for  oceTAUX      Diagnostic #     81  oceTAUY  exists 
 Computing Diagnostic #     81  oceTAUY      Counter:       4   Parms: VV      U1      
           Vector  Mate for  oceTAUY      Diagnostic #     80  oceTAUX  exists 
 Computing Diagnostic #     26  THETA        Counter:       4   Parms: SMR     MR      
 Computing Diagnostic #     27  SALT         Counter:       4   Parms: SMR     MR      
 Computing Diagnostic #     30  UVEL         Counter:       4   Parms: UUR     MR      
           Vector  Mate for  UVEL         Diagnostic #     31  VVEL     exists 
 Computing Diagnostic #     31  VVEL         Counter:       4   Parms: VVR     MR      
           Vector  Mate for  VVEL         Diagnostic #     30  UVEL     exists 
 Computing Diagnostic #    214  SIarea       Counter:       4   Parms: SM      M1      
 Computing Diagnostic #    217  SIheff       Counter:       4   Parms: SM      M1      
 Computing Diagnostic #    219  SIhsnow      Counter:       4   Parms: SM      M1      
 Computing Diagnostic #     83  sIceLoad     Counter:       4   Parms: SM      U1      
 Computing Diagnostic #    223  SIuice       Counter:       4   Parms: UU      M1      
           Vector  Mate for  SIuice       Diagnostic #    224  SIvice   exists 
 Computing Diagnostic #    224  SIvice       Counter:       4   Parms: VV      M1      
           Vector  Mate for  SIvice       Diagnostic #    223  SIuice   exists 
 Computing Diagnostic #    225  SItaux       Counter:       4   Parms: UU      U1      
           Vector  Mate for  SItaux       Diagnostic #    226  SItauy   exists 
 Computing Diagnostic #    226  SItauy       Counter:       4   Parms: VV      U1      
           Vector  Mate for  SItauy       Diagnostic #    225  SItaux   exists 
 Computing Diagnostic #    285  SIareaN      Counter:       4   Parms: SM      MX      
 Computing Diagnostic #    284  SIheffN      Counter:       4   Parms: SM      MX      
 Computing Diagnostic #    286  SIhsnowN     Counter:       4   Parms: SM      MX      
 Compute Stats, Diag. #    214  SIarea    vol(   0 ): 3.580E+14  Parms: SM      M1      
 Compute Stats, Diag. #    217  SIheff    vol(   0 ): 3.580E+14  Parms: SM      M1      
 Compute Stats, Diag. #    219  SIhsnow   vol(   0 ): 3.580E+14  Parms: SM      M1      
 Compute Stats, Diag. #     83  sIceLoad  vol(   0 ): 3.580E+14  Parms: SM      U1      
 Compute Stats, Diag. #    223  SIuice    vol(   0 ): 3.513E+14  Parms: UU      M1      
 Compute Stats, Diag. #    224  SIvice    vol(   0 ): 3.508E+14  Parms: VV      M1      
 Compute Stats, Diag. #    225  SItaux    vol(   0 ): 3.513E+14  Parms: UU      U1      
 Compute Stats, Diag. #    226  SItauy    vol(   0 ): 3.508E+14  Parms: VV      U1      
 cg2d: Sum(rhs),rhsMax =  -3.29753603348884E+00  2.93019860469075E-01
 Compute Stats, Diag. #    214  SIarea    vol(   0 ): 3.580E+14  Parms: SM      M1      
 Compute Stats, Diag. #    217  SIheff    vol(   0 ): 3.580E+14  Parms: SM      M1      
 Compute Stats, Diag. #    219  SIhsnow   vol(   0 ): 3.580E+14  Parms: SM      M1      
 Compute Stats, Diag. #     83  sIceLoad  vol(   0 ): 3.580E+14  Parms: SM      U1      
 Compute Stats, Diag. #    223  SIuice    vol(   0 ): 3.513E+14  Parms: UU      M1      
 Compute Stats, Diag. #    224  SIvice    vol(   0 ): 3.508E+14  Parms: VV      M1      
 Compute Stats, Diag. #    225  SItaux    vol(   0 ): 3.513E+14  Parms: UU      U1      
 Compute Stats, Diag. #    226  SItauy    vol(   0 ): 3.508E+14  Parms: VV      U1      
 cg2d: Sum(rhs),rhsMax =  -3.41765175893958E+00  2.93035071011846E-01
 Compute Stats, Diag. #    214  SIarea    vol(   0 ): 3.580E+14  Parms: SM      M1      
 Compute Stats, Diag. #    217  SIheff    vol(   0 ): 3.580E+14  Parms: SM      M1      
 Compute Stats, Diag. #    219  SIhsnow   vol(   0 ): 3.580E+14  Parms: SM      M1      
 Compute Stats, Diag. #     83  sIceLoad  vol(   0 ): 3.580E+14  Parms: SM      U1      
 Compute Stats, Diag. #    223  SIuice    vol(   0 ): 3.513E+14  Parms: UU      M1      
 Compute Stats, Diag. #    224  SIvice    vol(   0 ): 3.508E+14  Parms: VV      M1      
 Compute Stats, Diag. #    225  SItaux    vol(   0 ): 3.513E+14  Parms: UU      U1      
 Compute Stats, Diag. #    226  SItauy    vol(   0 ): 3.508E+14  Parms: VV      U1      
 cg2d: Sum(rhs),rhsMax =  -3.54079215277285E+00  2.93047588859553E-01
 Compute Stats, Diag. #    214  SIarea    vol(   0 ): 3.580E+14  Parms: SM      M1      
 Compute Stats, Diag. #    217  SIheff    vol(   0 ): 3.580E+14  Parms: SM      M1      
 Compute Stats, Diag. #    219  SIhsnow   vol(   0 ): 3.580E+14  Parms: SM      M1      
 Compute Stats, Diag. #     83  sIceLoad  vol(   0 ): 3.580E+14  Parms: SM      U1      
 Compute Stats, Diag. #    223  SIuice    vol(   0 ): 3.513E+14  Parms: UU      M1      
 Compute Stats, Diag. #    224  SIvice    vol(   0 ): 3.508E+14  Parms: VV      M1      
 Compute Stats, Diag. #    225  SItaux    vol(   0 ): 3.513E+14  Parms: UU      U1      
 Compute Stats, Diag. #    226  SItauy    vol(   0 ): 3.508E+14  Parms: VV      U1      
 cg2d: Sum(rhs),rhsMax =  -3.66261641823414E+00  2.93056602751143E-01
 Computing Diagnostic #     86  oceQnet      Counter:       4   Parms: SM      U1      
 Computing Diagnostic #     87  oceQsw       Counter:       4   Parms: SM      U1      
 Computing Diagnostic #     84  oceFWflx     Counter:       4   Parms: SM      U1      
 Computing Diagnostic #     85  oceSflux     Counter:       4   Parms: SM      U1      
 Computing Diagnostic #     80  oceTAUX      Counter:       4   Parms: UU      U1      
           Vector  Mate for  oceTAUX      Diagnostic #     81  oceTAUY  exists 
 Computing Diagnostic #     81  oceTAUY      Counter:       4   Parms: VV      U1      
           Vector  Mate for  oceTAUY      Diagnostic #     80  oceTAUX  exists 
 Computing Diagnostic #     26  THETA        Counter:       4   Parms: SMR     MR      
 Computing Diagnostic #     27  SALT         Counter:       4   Parms: SMR     MR      
 Computing Diagnostic #     30  UVEL         Counter:       4   Parms: UUR     MR      
           Vector  Mate for  UVEL         Diagnostic #     31  VVEL     exists 
 Computing Diagnostic #     31  VVEL         Counter:       4   Parms: VVR     MR      
           Vector  Mate for  VVEL         Diagnostic #     30  UVEL     exists 
 Computing Diagnostic #    214  SIarea       Counter:       4   Parms: SM      M1      
 Computing Diagnostic #    217  SIheff       Counter:       4   Parms: SM      M1      
 Computing Diagnostic #    219  SIhsnow      Counter:       4   Parms: SM      M1      
 Computing Diagnostic #     83  sIceLoad     Counter:       4   Parms: SM      U1      
 Computing Diagnostic #    223  SIuice       Counter:       4   Parms: UU      M1      
           Vector  Mate for  SIuice       Diagnostic #    224  SIvice   exists 
 Computing Diagnostic #    224  SIvice       Counter:       4   Parms: VV      M1      
           Vector  Mate for  SIvice       Diagnostic #    223  SIuice   exists 
 Computing Diagnostic #    225  SItaux       Counter:       4   Parms: UU      U1      
           Vector  Mate for  SItaux       Diagnostic #    226  SItauy   exists 
 Computing Diagnostic #    226  SItauy       Counter:       4   Parms: VV      U1      
           Vector  Mate for  SItauy       Diagnostic #    225  SItaux   exists 
 Computing Diagnostic #    285  SIareaN      Counter:       4   Parms: SM      MX      
 Computing Diagnostic #    284  SIheffN      Counter:       4   Parms: SM      MX      
 Computing Diagnostic #    286  SIhsnowN     Counter:       4   Parms: SM      MX      
 Compute Stats, Diag. #    214  SIarea    vol(   0 ): 3.580E+14  Parms: SM      M1      
 Compute Stats, Diag. #    217  SIheff    vol(   0 ): 3.580E+14  Parms: SM      M1      
 Compute Stats, Diag. #    219  SIhsnow   vol(   0 ): 3.580E+14  Parms: SM      M1      
 Compute Stats, Diag. #     83  sIceLoad  vol(   0 ): 3.580E+14  Parms: SM      U1      
 Compute Stats, Diag. #    223  SIuice    vol(   0 ): 3.513E+14  Parms: UU      M1      
 Compute Stats, Diag. #    224  SIvice    vol(   0 ): 3.508E+14  Parms: VV      M1      
 Compute Stats, Diag. #    225  SItaux    vol(   0 ): 3.513E+14  Parms: UU      U1      
 Compute Stats, Diag. #    226  SItauy    vol(   0 ): 3.508E+14  Parms: VV      U1      
 cg2d: Sum(rhs),rhsMax =  -3.78369894808147E+00  2.93061603649214E-01
 Compute Stats, Diag. #    214  SIarea    vol(   0 ): 3.580E+14  Parms: SM      M1      
 Compute Stats, Diag. #    217  SIheff    vol(   0 ): 3.580E+14  Parms: SM      M1      
 Compute Stats, Diag. #    219  SIhsnow   vol(   0 ): 3.580E+14  Parms: SM      M1      
 Compute Stats, Diag. #     83  sIceLoad  vol(   0 ): 3.580E+14  Parms: SM      U1      
 Compute Stats, Diag. #    223  SIuice    vol(   0 ): 3.513E+14  Parms: UU      M1      
 Compute Stats, Diag. #    224  SIvice    vol(   0 ): 3.508E+14  Parms: VV      M1      
 Compute Stats, Diag. #    225  SItaux    vol(   0 ): 3.513E+14  Parms: UU      U1      
 Compute Stats, Diag. #    226  SItauy    vol(   0 ): 3.508E+14  Parms: VV      U1      
 cg2d: Sum(rhs),rhsMax =  -3.90471570620041E+00  2.93062298382257E-01
 Compute Stats, Diag. #    214  SIarea    vol(   0 ): 3.580E+14  Parms: SM      M1      
 Compute Stats, Diag. #    217  SIheff    vol(   0 ): 3.580E+14  Parms: SM      M1      
 Compute Stats, Diag. #    219  SIhsnow   vol(   0 ): 3.580E+14  Parms: SM      M1      
 Compute Stats, Diag. #     83  sIceLoad  vol(   0 ): 3.580E+14  Parms: SM      U1      
 Compute Stats, Diag. #    223  SIuice    vol(   0 ): 3.513E+14  Parms: UU      M1      
 Compute Stats, Diag. #    224  SIvice    vol(   0 ): 3.508E+14  Parms: VV      M1      
 Compute Stats, Diag. #    225  SItaux    vol(   0 ): 3.513E+14  Parms: UU      U1      
 Compute Stats, Diag. #    226  SItauy    vol(   0 ): 3.508E+14  Parms: VV      U1      
 cg2d: Sum(rhs),rhsMax =  -4.02497806966092E+00  2.93058411242963E-01
 Compute Stats, Diag. #    214  SIarea    vol(   0 ): 3.580E+14  Parms: SM      M1      
 Compute Stats, Diag. #    217  SIheff    vol(   0 ): 3.580E+14  Parms: SM      M1      
 Compute Stats, Diag. #    219  SIhsnow   vol(   0 ): 3.580E+14  Parms: SM      M1      
 Compute Stats, Diag. #     83  sIceLoad  vol(   0 ): 3.580E+14  Parms: SM      U1      
 Compute Stats, Diag. #    223  SIuice    vol(   0 ): 3.513E+14  Parms: UU      M1      
 Compute Stats, Diag. #    224  SIvice    vol(   0 ): 3.508E+14  Parms: VV      M1      
 Compute Stats, Diag. #    225  SItaux    vol(   0 ): 3.513E+14  Parms: UU      U1      
 Compute Stats, Diag. #    226  SItauy    vol(   0 ): 3.508E+14  Parms: VV      U1      
 cg2d: Sum(rhs),rhsMax =  -4.14164705927199E+00  2.93049658253191E-01
(PID.TID 0000.0001)      cg2d_init_res =   4.12943979603112E-02
(PID.TID 0000.0001)      cg2d_iters(min,last) =      -1      22
(PID.TID 0000.0001)      cg2d_last_res =   2.77963337348261E-05
(PID.TID 0000.0001) // =======================================================
(PID.TID 0000.0001) // Begin MONITOR dynamic field statistics
(PID.TID 0000.0001) // =======================================================
(PID.TID 0000.0001) %MON time_tsnumber                =                   720
(PID.TID 0000.0001) %MON time_secondsf                =   6.4800000000000E+05
(PID.TID 0000.0001) %MON dynstat_eta_max              =   1.0378623400565E+00
(PID.TID 0000.0001) %MON dynstat_eta_min              =  -1.8578721806255E+00
(PID.TID 0000.0001) %MON dynstat_eta_mean             =   1.3101352402781E-04
(PID.TID 0000.0001) %MON dynstat_eta_sd               =   6.3478836439851E-01
(PID.TID 0000.0001) %MON dynstat_eta_del2             =   5.3211844113690E-05
(PID.TID 0000.0001) %MON dynstat_uvel_max             =   7.1588624017670E-01
(PID.TID 0000.0001) %MON dynstat_uvel_min             =  -6.6583989152584E-01
(PID.TID 0000.0001) %MON dynstat_uvel_mean            =   1.3787866996562E-03
(PID.TID 0000.0001) %MON dynstat_uvel_sd              =   1.8606371275781E-02
(PID.TID 0000.0001) %MON dynstat_uvel_del2            =   7.2194192043342E-06
(PID.TID 0000.0001) %MON dynstat_vvel_max             =   4.9375240710423E-01
(PID.TID 0000.0001) %MON dynstat_vvel_min             =  -8.7737446242467E-01
(PID.TID 0000.0001) %MON dynstat_vvel_mean            =   1.1269679366048E-03
(PID.TID 0000.0001) %MON dynstat_vvel_sd              =   1.9405456725974E-02
(PID.TID 0000.0001) %MON dynstat_vvel_del2            =   7.3001938125021E-06
(PID.TID 0000.0001) %MON dynstat_wvel_max             =   3.8635417183204E-04
(PID.TID 0000.0001) %MON dynstat_wvel_min             =  -8.5028734093232E-04
(PID.TID 0000.0001) %MON dynstat_wvel_mean            =   4.3292498950877E-09
(PID.TID 0000.0001) %MON dynstat_wvel_sd              =   1.9694593820757E-05
(PID.TID 0000.0001) %MON dynstat_wvel_del2            =   1.4332103929064E-08
(PID.TID 0000.0001) %MON dynstat_theta_max            =   3.2169755604737E+01
(PID.TID 0000.0001) %MON dynstat_theta_min            =  -2.0399917326589E+00
(PID.TID 0000.0001) %MON dynstat_theta_mean           =   3.5902851926878E+00
(PID.TID 0000.0001) %MON dynstat_theta_sd             =   4.4366710356062E+00
(PID.TID 0000.0001) %MON dynstat_theta_del2           =   9.2247887567766E-05
(PID.TID 0000.0001) %MON dynstat_salt_max             =   4.0711552760402E+01
(PID.TID 0000.0001) %MON dynstat_salt_min             =   6.8048269088146E+00
(PID.TID 0000.0001) %MON dynstat_salt_mean            =   3.4725570508797E+01
(PID.TID 0000.0001) %MON dynstat_salt_sd              =   3.7705724786159E-01
(PID.TID 0000.0001) %MON dynstat_salt_del2            =   3.6029686576300E-05
(PID.TID 0000.0001) %MON dynstat_sst_max              =   3.2169755604737E+01
(PID.TID 0000.0001) %MON dynstat_sst_min              =  -1.8102530035756E+00
(PID.TID 0000.0001) %MON dynstat_sst_mean             =   1.8474969267156E+01
(PID.TID 0000.0001) %MON dynstat_sst_sd               =   1.0244997458718E+01
(PID.TID 0000.0001) %MON dynstat_sst_del2             =   7.9997132782920E-04
(PID.TID 0000.0001) %MON dynstat_sss_max              =   3.9103461442871E+01
(PID.TID 0000.0001) %MON dynstat_sss_min              =   6.8048269088146E+00
(PID.TID 0000.0001) %MON dynstat_sss_mean             =   3.4700071038695E+01
(PID.TID 0000.0001) %MON dynstat_sss_sd               =   1.1701881947320E+00
(PID.TID 0000.0001) %MON dynstat_sss_del2             =   1.1214784377287E-03
(PID.TID 0000.0001) %MON forcing_qnet_max             =   7.8241082763672E+02
(PID.TID 0000.0001) %MON forcing_qnet_min             =  -7.0751762430718E+02
(PID.TID 0000.0001) %MON forcing_qnet_mean            =   4.1780044887159E+01
(PID.TID 0000.0001) %MON forcing_qnet_sd              =   1.6562847938964E+02
(PID.TID 0000.0001) %MON forcing_qnet_del2            =   2.9990776728829E-01
(PID.TID 0000.0001) %MON forcing_qsw_max              =   0.0000000000000E+00
(PID.TID 0000.0001) %MON forcing_qsw_min              =  -1.1061801220793E+02
(PID.TID 0000.0001) %MON forcing_qsw_mean             =  -1.3285946893642E+01
(PID.TID 0000.0001) %MON forcing_qsw_sd               =   2.4189885315919E+01
(PID.TID 0000.0001) %MON forcing_qsw_del2             =   1.8654864641914E-02
(PID.TID 0000.0001) %MON forcing_empmr_max            =   1.5174696454778E-03
(PID.TID 0000.0001) %MON forcing_empmr_min            =  -7.1348465979099E-02
(PID.TID 0000.0001) %MON forcing_empmr_mean           =  -4.2196005859523E-06
(PID.TID 0000.0001) %MON forcing_empmr_sd             =   3.3915151843180E-04
(PID.TID 0000.0001) %MON forcing_empmr_del2           =   4.2520235107902E-06
(PID.TID 0000.0001) %MON forcing_fu_max               =   6.4441481232643E-01
(PID.TID 0000.0001) %MON forcing_fu_min               =  -6.9823113083839E-01
(PID.TID 0000.0001) %MON forcing_fu_mean              =   3.6102155307289E-03
(PID.TID 0000.0001) %MON forcing_fu_sd                =   9.3660649460300E-02
(PID.TID 0000.0001) %MON forcing_fu_del2              =   1.2718126324720E-04
(PID.TID 0000.0001) %MON forcing_fv_max               =   7.3133295774460E-01
(PID.TID 0000.0001) %MON forcing_fv_min               =  -8.4642463922501E-01
(PID.TID 0000.0001) %MON forcing_fv_mean              =  -1.1973100269182E-02
(PID.TID 0000.0001) %MON forcing_fv_sd                =   1.0416419698815E-01
(PID.TID 0000.0001) %MON forcing_fv_del2              =   1.2920783068901E-04
(PID.TID 0000.0001) %MON trAdv_CFL_u_max              =   1.0186312906845E-02
(PID.TID 0000.0001) %MON trAdv_CFL_v_max              =   1.2458145686115E-02
(PID.TID 0000.0001) %MON trAdv_CFL_w_max              =   1.9969016106900E-02
(PID.TID 0000.0001) %MON advcfl_uvel_max              =   7.3453257620009E-03
(PID.TID 0000.0001) %MON advcfl_vvel_max              =   1.0695081400547E-02
(PID.TID 0000.0001) %MON advcfl_wvel_max              =   2.0052671543635E-02
(PID.TID 0000.0001) %MON advcfl_W_hf_max              =   2.0120828329877E-02
(PID.TID 0000.0001) %MON pe_b_mean                    =   5.3004921661137E-04
(PID.TID 0000.0001) %MON ke_max                       =   3.9292128563423E-01
(PID.TID 0000.0001) %MON ke_mean                      =   3.5004354392897E-04
(PID.TID 0000.0001) %MON ke_vol                       =   1.3349979225227E+18
(PID.TID 0000.0001) %MON vort_r_min                   =  -1.3763206544771E-05
(PID.TID 0000.0001) %MON vort_r_max                   =   1.8511342554370E-05
(PID.TID 0000.0001) %MON vort_a_mean                  =  -1.9727864647440E-05
(PID.TID 0000.0001) %MON vort_a_sd                    =   7.4542981925175E-05
(PID.TID 0000.0001) %MON vort_p_mean                  =  -2.1760532941550E-05
(PID.TID 0000.0001) %MON vort_p_sd                    =   9.7245596502275E-05
(PID.TID 0000.0001) %MON surfExpan_theta_mean         =   9.9722743499642E-08
(PID.TID 0000.0001) %MON surfExpan_salt_mean          =   5.0254559387519E-08
(PID.TID 0000.0001) // =======================================================
(PID.TID 0000.0001) // End MONITOR dynamic field statistics
(PID.TID 0000.0001) // =======================================================
(PID.TID 0000.0001) // =======================================================
(PID.TID 0000.0001) // Begin MONITOR SEAICE statistics
(PID.TID 0000.0001) // =======================================================
(PID.TID 0000.0001) %MON seaice_tsnumber              =                   720
(PID.TID 0000.0001) %MON seaice_time_sec              =   6.4800000000000E+05
(PID.TID 0000.0001) %MON seaice_uice_max              =   4.0000000000000E-01
(PID.TID 0000.0001) %MON seaice_uice_min              =  -4.0000000000000E-01
(PID.TID 0000.0001) %MON seaice_uice_mean             =  -8.3054598624025E-03
(PID.TID 0000.0001) %MON seaice_uice_sd               =   1.9802383574176E-01
(PID.TID 0000.0001) %MON seaice_uice_del2             =   2.2931571122150E-04
(PID.TID 0000.0001) %MON seaice_vice_max              =   4.0000000000000E-01
(PID.TID 0000.0001) %MON seaice_vice_min              =  -4.0000000000000E-01
(PID.TID 0000.0001) %MON seaice_vice_mean             =  -2.1960776359499E-02
(PID.TID 0000.0001) %MON seaice_vice_sd               =   2.1302038025672E-01
(PID.TID 0000.0001) %MON seaice_vice_del2             =   2.3932563818061E-04
(PID.TID 0000.0001) %MON seaice_area_max              =   1.0000000000000E+00
(PID.TID 0000.0001) %MON seaice_area_min              =   0.0000000000000E+00
(PID.TID 0000.0001) %MON seaice_area_mean             =   6.5983983482341E-02
(PID.TID 0000.0001) %MON seaice_area_sd               =   2.3002607809273E-01
(PID.TID 0000.0001) %MON seaice_area_del2             =   3.9438882251319E-04
(PID.TID 0000.0001) %MON seaice_heff_max              =   2.5009045630810E+01
(PID.TID 0000.0001) %MON seaice_heff_min              =   0.0000000000000E+00
(PID.TID 0000.0001) %MON seaice_heff_mean             =   2.1276976572260E-01
(PID.TID 0000.0001) %MON seaice_heff_sd               =   1.0667081909525E+00
(PID.TID 0000.0001) %MON seaice_heff_del2             =   3.8448233824403E-03
(PID.TID 0000.0001) %MON seaice_hsnow_max             =   8.2604364955914E+00
(PID.TID 0000.0001) %MON seaice_hsnow_min             =   0.0000000000000E+00
(PID.TID 0000.0001) %MON seaice_hsnow_mean            =   2.4076519323981E-02
(PID.TID 0000.0001) %MON seaice_hsnow_sd              =   1.5624628801521E-01
(PID.TID 0000.0001) %MON seaice_hsnow_del2            =   1.2400208655935E-03
(PID.TID 0000.0001) // =======================================================
(PID.TID 0000.0001) // End MONITOR SEAICE statistics
(PID.TID 0000.0001) // =======================================================
 Computing Diagnostic #     86  oceQnet      Counter:       4   Parms: SM      U1      
 Computing Diagnostic #     87  oceQsw       Counter:       4   Parms: SM      U1      
 Computing Diagnostic #     84  oceFWflx     Counter:       4   Parms: SM      U1      
 Computing Diagnostic #     85  oceSflux     Counter:       4   Parms: SM      U1      
 Computing Diagnostic #     80  oceTAUX      Counter:       4   Parms: UU      U1      
           Vector  Mate for  oceTAUX      Diagnostic #     81  oceTAUY  exists 
 Computing Diagnostic #     81  oceTAUY      Counter:       4   Parms: VV      U1      
           Vector  Mate for  oceTAUY      Diagnostic #     80  oceTAUX  exists 
 Computing Diagnostic #     26  THETA        Counter:       4   Parms: SMR     MR      
 Computing Diagnostic #     27  SALT         Counter:       4   Parms: SMR     MR      
 Computing Diagnostic #     30  UVEL         Counter:       4   Parms: UUR     MR      
           Vector  Mate for  UVEL         Diagnostic #     31  VVEL     exists 
 Computing Diagnostic #     31  VVEL         Counter:       4   Parms: VVR     MR      
           Vector  Mate for  VVEL         Diagnostic #     30  UVEL     exists 
 Computing Diagnostic #    214  SIarea       Counter:       4   Parms: SM      M1      
 Computing Diagnostic #    217  SIheff       Counter:       4   Parms: SM      M1      
 Computing Diagnostic #    219  SIhsnow      Counter:       4   Parms: SM      M1      
 Computing Diagnostic #     83  sIceLoad     Counter:       4   Parms: SM      U1      
 Computing Diagnostic #    223  SIuice       Counter:       4   Parms: UU      M1      
           Vector  Mate for  SIuice       Diagnostic #    224  SIvice   exists 
 Computing Diagnostic #    224  SIvice       Counter:       4   Parms: VV      M1      
           Vector  Mate for  SIvice       Diagnostic #    223  SIuice   exists 
 Computing Diagnostic #    225  SItaux       Counter:       4   Parms: UU      U1      
           Vector  Mate for  SItaux       Diagnostic #    226  SItauy   exists 
 Computing Diagnostic #    226  SItauy       Counter:       4   Parms: VV      U1      
           Vector  Mate for  SItauy       Diagnostic #    225  SItaux   exists 
 Computing Diagnostic #    285  SIareaN      Counter:       4   Parms: SM      MX      
 Computing Diagnostic #    284  SIheffN      Counter:       4   Parms: SM      MX      
 Computing Diagnostic #    286  SIhsnowN     Counter:       4   Parms: SM      MX      
 Compute Stats, Diag. #    214  SIarea    vol(   0 ): 3.580E+14  Parms: SM      M1      
 Compute Stats, Diag. #    217  SIheff    vol(   0 ): 3.580E+14  Parms: SM      M1      
 Compute Stats, Diag. #    219  SIhsnow   vol(   0 ): 3.580E+14  Parms: SM      M1      
 Compute Stats, Diag. #     83  sIceLoad  vol(   0 ): 3.580E+14  Parms: SM      U1      
 Compute Stats, Diag. #    223  SIuice    vol(   0 ): 3.513E+14  Parms: UU      M1      
 Compute Stats, Diag. #    224  SIvice    vol(   0 ): 3.508E+14  Parms: VV      M1      
 Compute Stats, Diag. #    225  SItaux    vol(   0 ): 3.513E+14  Parms: UU      U1      
 Compute Stats, Diag. #    226  SItauy    vol(   0 ): 3.508E+14  Parms: VV      U1      
 cg2d: Sum(rhs),rhsMax =  -4.26008722307282E+00  2.93035557303095E-01
 Compute Stats, Diag. #    214  SIarea    vol(   0 ): 3.580E+14  Parms: SM      M1      
 Compute Stats, Diag. #    217  SIheff    vol(   0 ): 3.580E+14  Parms: SM      M1      
 Compute Stats, Diag. #    219  SIhsnow   vol(   0 ): 3.580E+14  Parms: SM      M1      
 Compute Stats, Diag. #     83  sIceLoad  vol(   0 ): 3.580E+14  Parms: SM      U1      
 Compute Stats, Diag. #    223  SIuice    vol(   0 ): 3.513E+14  Parms: UU      M1      
 Compute Stats, Diag. #    224  SIvice    vol(   0 ): 3.508E+14  Parms: VV      M1      
 Compute Stats, Diag. #    225  SItaux    vol(   0 ): 3.513E+14  Parms: UU      U1      
 Compute Stats, Diag. #    226  SItauy    vol(   0 ): 3.508E+14  Parms: VV      U1      
 cg2d: Sum(rhs),rhsMax =  -4.38182736821818E+00  2.93016063370302E-01
 Compute Stats, Diag. #    214  SIarea    vol(   0 ): 3.580E+14  Parms: SM      M1      
 Compute Stats, Diag. #    217  SIheff    vol(   0 ): 3.580E+14  Parms: SM      M1      
 Compute Stats, Diag. #    219  SIhsnow   vol(   0 ): 3.580E+14  Parms: SM      M1      
 Compute Stats, Diag. #     83  sIceLoad  vol(   0 ): 3.580E+14  Parms: SM      U1      
 Compute Stats, Diag. #    223  SIuice    vol(   0 ): 3.513E+14  Parms: UU      M1      
 Compute Stats, Diag. #    224  SIvice    vol(   0 ): 3.508E+14  Parms: VV      M1      
 Compute Stats, Diag. #    225  SItaux    vol(   0 ): 3.513E+14  Parms: UU      U1      
 Compute Stats, Diag. #    226  SItauy    vol(   0 ): 3.508E+14  Parms: VV      U1      
 cg2d: Sum(rhs),rhsMax =  -4.50852213058698E+00  2.92990919412380E-01
 Compute Stats, Diag. #    214  SIarea    vol(   0 ): 3.580E+14  Parms: SM      M1      
 Compute Stats, Diag. #    217  SIheff    vol(   0 ): 3.580E+14  Parms: SM      M1      
 Compute Stats, Diag. #    219  SIhsnow   vol(   0 ): 3.580E+14  Parms: SM      M1      
 Compute Stats, Diag. #     83  sIceLoad  vol(   0 ): 3.580E+14  Parms: SM      U1      
 Compute Stats, Diag. #    223  SIuice    vol(   0 ): 3.513E+14  Parms: UU      M1      
 Compute Stats, Diag. #    224  SIvice    vol(   0 ): 3.508E+14  Parms: VV      M1      
 Compute Stats, Diag. #    225  SItaux    vol(   0 ): 3.513E+14  Parms: UU      U1      
 Compute Stats, Diag. #    226  SItauy    vol(   0 ): 3.508E+14  Parms: VV      U1      
 cg2d: Sum(rhs),rhsMax =  -4.62884484764972E+00  2.92960220119666E-01
 Computing Diagnostic #     86  oceQnet      Counter:       4   Parms: SM      U1      
 Computing Diagnostic #     87  oceQsw       Counter:       4   Parms: SM      U1      
 Computing Diagnostic #     84  oceFWflx     Counter:       4   Parms: SM      U1      
 Computing Diagnostic #     85  oceSflux     Counter:       4   Parms: SM      U1      
 Computing Diagnostic #     80  oceTAUX      Counter:       4   Parms: UU      U1      
           Vector  Mate for  oceTAUX      Diagnostic #     81  oceTAUY  exists 
 Computing Diagnostic #     81  oceTAUY      Counter:       4   Parms: VV      U1      
           Vector  Mate for  oceTAUY      Diagnostic #     80  oceTAUX  exists 
 Computing Diagnostic #     26  THETA        Counter:       4   Parms: SMR     MR      
 Computing Diagnostic #     27  SALT         Counter:       4   Parms: SMR     MR      
 Computing Diagnostic #     30  UVEL         Counter:       4   Parms: UUR     MR      
           Vector  Mate for  UVEL         Diagnostic #     31  VVEL     exists 
 Computing Diagnostic #     31  VVEL         Counter:       4   Parms: VVR     MR      
           Vector  Mate for  VVEL         Diagnostic #     30  UVEL     exists 
 Computing Diagnostic #    214  SIarea       Counter:       4   Parms: SM      M1      
 Computing Diagnostic #    217  SIheff       Counter:       4   Parms: SM      M1      
 Computing Diagnostic #    219  SIhsnow      Counter:       4   Parms: SM      M1      
 Computing Diagnostic #     83  sIceLoad     Counter:       4   Parms: SM      U1      
 Computing Diagnostic #    223  SIuice       Counter:       4   Parms: UU      M1      
           Vector  Mate for  SIuice       Diagnostic #    224  SIvice   exists 
 Computing Diagnostic #    224  SIvice       Counter:       4   Parms: VV      M1      
           Vector  Mate for  SIvice       Diagnostic #    223  SIuice   exists 
 Computing Diagnostic #    225  SItaux       Counter:       4   Parms: UU      U1      
           Vector  Mate for  SItaux       Diagnostic #    226  SItauy   exists 
 Computing Diagnostic #    226  SItauy       Counter:       4   Parms: VV      U1      
           Vector  Mate for  SItauy       Diagnostic #    225  SItaux   exists 
 Computing Diagnostic #    285  SIareaN      Counter:       4   Parms: SM      MX      
 Computing Diagnostic #    284  SIheffN      Counter:       4   Parms: SM      MX      
 Computing Diagnostic #    286  SIhsnowN     Counter:       4   Parms: SM      MX      
 Compute Stats, Diag. #    214  SIarea    vol(   0 ): 3.580E+14  Parms: SM      M1      
 Compute Stats, Diag. #    217  SIheff    vol(   0 ): 3.580E+14  Parms: SM      M1      
 Compute Stats, Diag. #    219  SIhsnow   vol(   0 ): 3.580E+14  Parms: SM      M1      
 Compute Stats, Diag. #     83  sIceLoad  vol(   0 ): 3.580E+14  Parms: SM      U1      
 Compute Stats, Diag. #    223  SIuice    vol(   0 ): 3.513E+14  Parms: UU      M1      
 Compute Stats, Diag. #    224  SIvice    vol(   0 ): 3.508E+14  Parms: VV      M1      
 Compute Stats, Diag. #    225  SItaux    vol(   0 ): 3.513E+14  Parms: UU      U1      
 Compute Stats, Diag. #    226  SItauy    vol(   0 ): 3.508E+14  Parms: VV      U1      
 cg2d: Sum(rhs),rhsMax =  -4.75554681908939E+00  2.92923393894024E-01
 Compute Stats, Diag. #    214  SIarea    vol(   0 ): 3.580E+14  Parms: SM      M1      
 Compute Stats, Diag. #    217  SIheff    vol(   0 ): 3.580E+14  Parms: SM      M1      
 Compute Stats, Diag. #    219  SIhsnow   vol(   0 ): 3.580E+14  Parms: SM      M1      
 Compute Stats, Diag. #     83  sIceLoad  vol(   0 ): 3.580E+14  Parms: SM      U1      
 Compute Stats, Diag. #    223  SIuice    vol(   0 ): 3.513E+14  Parms: UU      M1      
 Compute Stats, Diag. #    224  SIvice    vol(   0 ): 3.508E+14  Parms: VV      M1      
 Compute Stats, Diag. #    225  SItaux    vol(   0 ): 3.513E+14  Parms: UU      U1      
 Compute Stats, Diag. #    226  SItauy    vol(   0 ): 3.508E+14  Parms: VV      U1      
 cg2d: Sum(rhs),rhsMax =  -4.88473572967202E+00  2.92880471850080E-01
 Compute Stats, Diag. #    214  SIarea    vol(   0 ): 3.580E+14  Parms: SM      M1      
 Compute Stats, Diag. #    217  SIheff    vol(   0 ): 3.580E+14  Parms: SM      M1      
 Compute Stats, Diag. #    219  SIhsnow   vol(   0 ): 3.580E+14  Parms: SM      M1      
 Compute Stats, Diag. #     83  sIceLoad  vol(   0 ): 3.580E+14  Parms: SM      U1      
 Compute Stats, Diag. #    223  SIuice    vol(   0 ): 3.513E+14  Parms: UU      M1      
 Compute Stats, Diag. #    224  SIvice    vol(   0 ): 3.508E+14  Parms: VV      M1      
 Compute Stats, Diag. #    225  SItaux    vol(   0 ): 3.513E+14  Parms: UU      U1      
 Compute Stats, Diag. #    226  SItauy    vol(   0 ): 3.508E+14  Parms: VV      U1      
 cg2d: Sum(rhs),rhsMax =  -5.02299171452799E+00  2.92832234378541E-01
 Compute Stats, Diag. #    214  SIarea    vol(   0 ): 3.580E+14  Parms: SM      M1      
 Compute Stats, Diag. #    217  SIheff    vol(   0 ): 3.580E+14  Parms: SM      M1      
 Compute Stats, Diag. #    219  SIhsnow   vol(   0 ): 3.580E+14  Parms: SM      M1      
 Compute Stats, Diag. #     83  sIceLoad  vol(   0 ): 3.580E+14  Parms: SM      U1      
 Compute Stats, Diag. #    223  SIuice    vol(   0 ): 3.513E+14  Parms: UU      M1      
 Compute Stats, Diag. #    224  SIvice    vol(   0 ): 3.508E+14  Parms: VV      M1      
 Compute Stats, Diag. #    225  SItaux    vol(   0 ): 3.513E+14  Parms: UU      U1      
 Compute Stats, Diag. #    226  SItauy    vol(   0 ): 3.508E+14  Parms: VV      U1      
 cg2d: Sum(rhs),rhsMax =  -5.17020389096099E+00  2.92778744800858E-01
(PID.TID 0000.0001)      cg2d_init_res =   3.94668920898537E-02
(PID.TID 0000.0001)      cg2d_iters(min,last) =      -1      22
(PID.TID 0000.0001)      cg2d_last_res =   2.68102236390323E-05
(PID.TID 0000.0001) // =======================================================
(PID.TID 0000.0001) // Begin MONITOR dynamic field statistics
(PID.TID 0000.0001) // =======================================================
(PID.TID 0000.0001) %MON time_tsnumber                =                   728
(PID.TID 0000.0001) %MON time_secondsf                =   6.5520000000000E+05
(PID.TID 0000.0001) %MON dynstat_eta_max              =   1.0388306556939E+00
(PID.TID 0000.0001) %MON dynstat_eta_min              =  -1.8574832149078E+00
(PID.TID 0000.0001) %MON dynstat_eta_mean             =   1.6355006160688E-04
(PID.TID 0000.0001) %MON dynstat_eta_sd               =   6.3473730685442E-01
(PID.TID 0000.0001) %MON dynstat_eta_del2             =   5.3148234430891E-05
(PID.TID 0000.0001) %MON dynstat_uvel_max             =   7.1792475451415E-01
(PID.TID 0000.0001) %MON dynstat_uvel_min             =  -6.6977237371901E-01
(PID.TID 0000.0001) %MON dynstat_uvel_mean            =   1.3732325847805E-03
(PID.TID 0000.0001) %MON dynstat_uvel_sd              =   1.8593143701031E-02
(PID.TID 0000.0001) %MON dynstat_uvel_del2            =   7.2060142453927E-06
(PID.TID 0000.0001) %MON dynstat_vvel_max             =   4.9244987425661E-01
(PID.TID 0000.0001) %MON dynstat_vvel_min             =  -8.7498514507991E-01
(PID.TID 0000.0001) %MON dynstat_vvel_mean            =   1.1266916302264E-03
(PID.TID 0000.0001) %MON dynstat_vvel_sd              =   1.9406031207691E-02
(PID.TID 0000.0001) %MON dynstat_vvel_del2            =   7.3008566359278E-06
(PID.TID 0000.0001) %MON dynstat_wvel_max             =   3.8170451743237E-04
(PID.TID 0000.0001) %MON dynstat_wvel_min             =  -8.4824000606267E-04
(PID.TID 0000.0001) %MON dynstat_wvel_mean            =   3.8747905993146E-09
(PID.TID 0000.0001) %MON dynstat_wvel_sd              =   1.9470161007919E-05
(PID.TID 0000.0001) %MON dynstat_wvel_del2            =   1.4245657078945E-08
(PID.TID 0000.0001) %MON dynstat_theta_max            =   3.2144243097951E+01
(PID.TID 0000.0001) %MON dynstat_theta_min            =  -2.0399696025755E+00
(PID.TID 0000.0001) %MON dynstat_theta_mean           =   3.5902693142239E+00
(PID.TID 0000.0001) %MON dynstat_theta_sd             =   4.4366228228514E+00
(PID.TID 0000.0001) %MON dynstat_theta_del2           =   9.2156147168177E-05
(PID.TID 0000.0001) %MON dynstat_salt_max             =   4.0711552200252E+01
(PID.TID 0000.0001) %MON dynstat_salt_min             =   6.7040040187261E+00
(PID.TID 0000.0001) %MON dynstat_salt_mean            =   3.4725570245684E+01
(PID.TID 0000.0001) %MON dynstat_salt_sd              =   3.7705879145251E-01
(PID.TID 0000.0001) %MON dynstat_salt_del2            =   3.6150111627531E-05
(PID.TID 0000.0001) %MON dynstat_sst_max              =   3.2144243097951E+01
(PID.TID 0000.0001) %MON dynstat_sst_min              =  -1.8107312551456E+00
(PID.TID 0000.0001) %MON dynstat_sst_mean             =   1.8471937427931E+01
(PID.TID 0000.0001) %MON dynstat_sst_sd               =   1.0245413804555E+01
(PID.TID 0000.0001) %MON dynstat_sst_del2             =   7.9852915119757E-04
(PID.TID 0000.0001) %MON dynstat_sss_max              =   3.9103219866720E+01
(PID.TID 0000.0001) %MON dynstat_sss_min              =   6.7040040187261E+00
(PID.TID 0000.0001) %MON dynstat_sss_mean             =   3.4700051860675E+01
(PID.TID 0000.0001) %MON dynstat_sss_sd               =   1.1705867841528E+00
(PID.TID 0000.0001) %MON dynstat_sss_del2             =   1.1267710188799E-03
(PID.TID 0000.0001) %MON forcing_qnet_max             =   6.7847625732422E+02
(PID.TID 0000.0001) %MON forcing_qnet_min             =  -7.6876792650709E+02
(PID.TID 0000.0001) %MON forcing_qnet_mean            =   2.8024937435187E+01
(PID.TID 0000.0001) %MON forcing_qnet_sd              =   1.7175378802323E+02
(PID.TID 0000.0001) %MON forcing_qnet_del2            =   2.9095302132481E-01
(PID.TID 0000.0001) %MON forcing_qsw_max              =   0.0000000000000E+00
(PID.TID 0000.0001) %MON forcing_qsw_min              =  -9.9701628153086E+01
(PID.TID 0000.0001) %MON forcing_qsw_mean             =  -1.4201366215280E+01
(PID.TID 0000.0001) %MON forcing_qsw_sd               =   2.4048927185994E+01
(PID.TID 0000.0001) %MON forcing_qsw_del2             =   2.0307330095373E-02
(PID.TID 0000.0001) %MON forcing_empmr_max            =   1.7838400090113E-03
(PID.TID 0000.0001) %MON forcing_empmr_min            =  -6.8827226758003E-02
(PID.TID 0000.0001) %MON forcing_empmr_mean           =  -5.3242647256179E-06
(PID.TID 0000.0001) %MON forcing_empmr_sd             =   3.1737786424990E-04
(PID.TID 0000.0001) %MON forcing_empmr_del2           =   3.8186183990872E-06
(PID.TID 0000.0001) %MON forcing_fu_max               =   6.7060893774033E-01
(PID.TID 0000.0001) %MON forcing_fu_min               =  -7.0035359263420E-01
(PID.TID 0000.0001) %MON forcing_fu_mean              =   3.2250085878706E-03
(PID.TID 0000.0001) %MON forcing_fu_sd                =   9.4319666766732E-02
(PID.TID 0000.0001) %MON forcing_fu_del2              =   1.2637007056416E-04
(PID.TID 0000.0001) %MON forcing_fv_max               =   7.4238279461861E-01
(PID.TID 0000.0001) %MON forcing_fv_min               =  -8.9428377151489E-01
(PID.TID 0000.0001) %MON forcing_fv_mean              =  -1.1202474963669E-02
(PID.TID 0000.0001) %MON forcing_fv_sd                =   1.0447666939493E-01
(PID.TID 0000.0001) %MON forcing_fv_del2              =   1.2777937147578E-04
(PID.TID 0000.0001) %MON trAdv_CFL_u_max              =   1.0228382102661E-02
(PID.TID 0000.0001) %MON trAdv_CFL_v_max              =   1.2251296021051E-02
(PID.TID 0000.0001) %MON trAdv_CFL_w_max              =   2.0037166131316E-02
(PID.TID 0000.0001) %MON advcfl_uvel_max              =   7.3657691089086E-03
(PID.TID 0000.0001) %MON advcfl_vvel_max              =   1.0783249541598E-02
(PID.TID 0000.0001) %MON advcfl_wvel_max              =   2.0422701618965E-02
(PID.TID 0000.0001) %MON advcfl_W_hf_max              =   2.0643179102556E-02
(PID.TID 0000.0001) %MON pe_b_mean                    =   5.2996396191551E-04
(PID.TID 0000.0001) %MON ke_max                       =   3.9102039531063E-01
(PID.TID 0000.0001) %MON ke_mean                      =   3.4980938869887E-04
(PID.TID 0000.0001) %MON ke_vol                       =   1.3349979338253E+18
(PID.TID 0000.0001) %MON vort_r_min                   =  -1.4040741542561E-05
(PID.TID 0000.0001) %MON vort_r_max                   =   1.8780573678358E-05
(PID.TID 0000.0001) %MON vort_a_mean                  =  -1.9727864647440E-05
(PID.TID 0000.0001) %MON vort_a_sd                    =   7.4542983523552E-05
(PID.TID 0000.0001) %MON vort_p_mean                  =  -2.1760532805092E-05
(PID.TID 0000.0001) %MON vort_p_sd                    =   9.7245643995097E-05
(PID.TID 0000.0001) %MON surfExpan_theta_mean         =   2.8658823649869E-08
(PID.TID 0000.0001) %MON surfExpan_salt_mean          =   4.2488205795534E-08
(PID.TID 0000.0001) // =======================================================
(PID.TID 0000.0001) // End MONITOR dynamic field statistics
(PID.TID 0000.0001) // =======================================================
(PID.TID 0000.0001) // =======================================================
(PID.TID 0000.0001) // Begin MONITOR SEAICE statistics
(PID.TID 0000.0001) // =======================================================
(PID.TID 0000.0001) %MON seaice_tsnumber              =                   728
(PID.TID 0000.0001) %MON seaice_time_sec              =   6.5520000000000E+05
(PID.TID 0000.0001) %MON seaice_uice_max              =   4.0000000000000E-01
(PID.TID 0000.0001) %MON seaice_uice_min              =  -4.0000000000000E-01
(PID.TID 0000.0001) %MON seaice_uice_mean             =  -8.3054598624025E-03
(PID.TID 0000.0001) %MON seaice_uice_sd               =   1.9802383574176E-01
(PID.TID 0000.0001) %MON seaice_uice_del2             =   2.2931571122150E-04
(PID.TID 0000.0001) %MON seaice_vice_max              =   4.0000000000000E-01
(PID.TID 0000.0001) %MON seaice_vice_min              =  -4.0000000000000E-01
(PID.TID 0000.0001) %MON seaice_vice_mean             =  -2.1960776359499E-02
(PID.TID 0000.0001) %MON seaice_vice_sd               =   2.1302038025672E-01
(PID.TID 0000.0001) %MON seaice_vice_del2             =   2.3932563818061E-04
(PID.TID 0000.0001) %MON seaice_area_max              =   1.0000000000000E+00
(PID.TID 0000.0001) %MON seaice_area_min              =   0.0000000000000E+00
(PID.TID 0000.0001) %MON seaice_area_mean             =   6.5954232743226E-02
(PID.TID 0000.0001) %MON seaice_area_sd               =   2.2997230843867E-01
(PID.TID 0000.0001) %MON seaice_area_del2             =   3.9397042794678E-04
(PID.TID 0000.0001) %MON seaice_heff_max              =   2.5007098410861E+01
(PID.TID 0000.0001) %MON seaice_heff_min              =   0.0000000000000E+00
(PID.TID 0000.0001) %MON seaice_heff_mean             =   2.1273757639788E-01
(PID.TID 0000.0001) %MON seaice_heff_sd               =   1.0666770153153E+00
(PID.TID 0000.0001) %MON seaice_heff_del2             =   3.8441485929769E-03
(PID.TID 0000.0001) %MON seaice_hsnow_max             =   8.2597954952507E+00
(PID.TID 0000.0001) %MON seaice_hsnow_min             =   0.0000000000000E+00
(PID.TID 0000.0001) %MON seaice_hsnow_mean            =   2.4074867844265E-02
(PID.TID 0000.0001) %MON seaice_hsnow_sd              =   1.5623586882892E-01
(PID.TID 0000.0001) %MON seaice_hsnow_del2            =   1.2399053230842E-03
(PID.TID 0000.0001) // =======================================================
(PID.TID 0000.0001) // End MONITOR SEAICE statistics
(PID.TID 0000.0001) // =======================================================
 Computing Diagnostic #     86  oceQnet      Counter:       4   Parms: SM      U1      
 Computing Diagnostic #     87  oceQsw       Counter:       4   Parms: SM      U1      
 Computing Diagnostic #     84  oceFWflx     Counter:       4   Parms: SM      U1      
 Computing Diagnostic #     85  oceSflux     Counter:       4   Parms: SM      U1      
 Computing Diagnostic #     80  oceTAUX      Counter:       4   Parms: UU      U1      
           Vector  Mate for  oceTAUX      Diagnostic #     81  oceTAUY  exists 
 Computing Diagnostic #     81  oceTAUY      Counter:       4   Parms: VV      U1      
           Vector  Mate for  oceTAUY      Diagnostic #     80  oceTAUX  exists 
 Computing Diagnostic #     26  THETA        Counter:       4   Parms: SMR     MR      
 Computing Diagnostic #     27  SALT         Counter:       4   Parms: SMR     MR      
 Computing Diagnostic #     30  UVEL         Counter:       4   Parms: UUR     MR      
           Vector  Mate for  UVEL         Diagnostic #     31  VVEL     exists 
 Computing Diagnostic #     31  VVEL         Counter:       4   Parms: VVR     MR      
           Vector  Mate for  VVEL         Diagnostic #     30  UVEL     exists 
 Computing Diagnostic #    214  SIarea       Counter:       4   Parms: SM      M1      
 Computing Diagnostic #    217  SIheff       Counter:       4   Parms: SM      M1      
 Computing Diagnostic #    219  SIhsnow      Counter:       4   Parms: SM      M1      
 Computing Diagnostic #     83  sIceLoad     Counter:       4   Parms: SM      U1      
 Computing Diagnostic #    223  SIuice       Counter:       4   Parms: UU      M1      
           Vector  Mate for  SIuice       Diagnostic #    224  SIvice   exists 
 Computing Diagnostic #    224  SIvice       Counter:       4   Parms: VV      M1      
           Vector  Mate for  SIvice       Diagnostic #    223  SIuice   exists 
 Computing Diagnostic #    225  SItaux       Counter:       4   Parms: UU      U1      
           Vector  Mate for  SItaux       Diagnostic #    226  SItauy   exists 
 Computing Diagnostic #    226  SItauy       Counter:       4   Parms: VV      U1      
           Vector  Mate for  SItauy       Diagnostic #    225  SItaux   exists 
 Computing Diagnostic #    285  SIareaN      Counter:       4   Parms: SM      MX      
 Computing Diagnostic #    284  SIheffN      Counter:       4   Parms: SM      MX      
 Computing Diagnostic #    286  SIhsnowN     Counter:       4   Parms: SM      MX      
 Compute Stats, Diag. #    214  SIarea    vol(   0 ): 3.580E+14  Parms: SM      M1      
 Compute Stats, Diag. #    217  SIheff    vol(   0 ): 3.580E+14  Parms: SM      M1      
 Compute Stats, Diag. #    219  SIhsnow   vol(   0 ): 3.580E+14  Parms: SM      M1      
 Compute Stats, Diag. #     83  sIceLoad  vol(   0 ): 3.580E+14  Parms: SM      U1      
 Compute Stats, Diag. #    223  SIuice    vol(   0 ): 3.513E+14  Parms: UU      M1      
 Compute Stats, Diag. #    224  SIvice    vol(   0 ): 3.508E+14  Parms: VV      M1      
 Compute Stats, Diag. #    225  SItaux    vol(   0 ): 3.513E+14  Parms: UU      U1      
 Compute Stats, Diag. #    226  SItauy    vol(   0 ): 3.508E+14  Parms: VV      U1      
 cg2d: Sum(rhs),rhsMax =  -5.32011714212176E+00  2.92721173821877E-01
 Compute Stats, Diag. #    214  SIarea    vol(   0 ): 3.580E+14  Parms: SM      M1      
 Compute Stats, Diag. #    217  SIheff    vol(   0 ): 3.580E+14  Parms: SM      M1      
 Compute Stats, Diag. #    219  SIhsnow   vol(   0 ): 3.580E+14  Parms: SM      M1      
 Compute Stats, Diag. #     83  sIceLoad  vol(   0 ): 3.580E+14  Parms: SM      U1      
 Compute Stats, Diag. #    223  SIuice    vol(   0 ): 3.513E+14  Parms: UU      M1      
 Compute Stats, Diag. #    224  SIvice    vol(   0 ): 3.508E+14  Parms: VV      M1      
 Compute Stats, Diag. #    225  SItaux    vol(   0 ): 3.513E+14  Parms: UU      U1      
 Compute Stats, Diag. #    226  SItauy    vol(   0 ): 3.508E+14  Parms: VV      U1      
 cg2d: Sum(rhs),rhsMax =  -5.47580759529727E+00  2.92659605137024E-01
 Compute Stats, Diag. #    214  SIarea    vol(   0 ): 3.580E+14  Parms: SM      M1      
 Compute Stats, Diag. #    217  SIheff    vol(   0 ): 3.580E+14  Parms: SM      M1      
 Compute Stats, Diag. #    219  SIhsnow   vol(   0 ): 3.580E+14  Parms: SM      M1      
 Compute Stats, Diag. #     83  sIceLoad  vol(   0 ): 3.580E+14  Parms: SM      U1      
 Compute Stats, Diag. #    223  SIuice    vol(   0 ): 3.513E+14  Parms: UU      M1      
 Compute Stats, Diag. #    224  SIvice    vol(   0 ): 3.508E+14  Parms: VV      M1      
 Compute Stats, Diag. #    225  SItaux    vol(   0 ): 3.513E+14  Parms: UU      U1      
 Compute Stats, Diag. #    226  SItauy    vol(   0 ): 3.508E+14  Parms: VV      U1      
 cg2d: Sum(rhs),rhsMax =  -5.64038812062896E+00  2.92594824503294E-01
 Compute Stats, Diag. #    214  SIarea    vol(   0 ): 3.580E+14  Parms: SM      M1      
 Compute Stats, Diag. #    217  SIheff    vol(   0 ): 3.580E+14  Parms: SM      M1      
 Compute Stats, Diag. #    219  SIhsnow   vol(   0 ): 3.580E+14  Parms: SM      M1      
 Compute Stats, Diag. #     83  sIceLoad  vol(   0 ): 3.580E+14  Parms: SM      U1      
 Compute Stats, Diag. #    223  SIuice    vol(   0 ): 3.513E+14  Parms: UU      M1      
 Compute Stats, Diag. #    224  SIvice    vol(   0 ): 3.508E+14  Parms: VV      M1      
 Compute Stats, Diag. #    225  SItaux    vol(   0 ): 3.513E+14  Parms: UU      U1      
 Compute Stats, Diag. #    226  SItauy    vol(   0 ): 3.508E+14  Parms: VV      U1      
 cg2d: Sum(rhs),rhsMax =  -5.80514040216389E+00  2.92526940470244E-01
 Computing Diagnostic #     86  oceQnet      Counter:       4   Parms: SM      U1      
 Computing Diagnostic #     87  oceQsw       Counter:       4   Parms: SM      U1      
 Computing Diagnostic #     84  oceFWflx     Counter:       4   Parms: SM      U1      
 Computing Diagnostic #     85  oceSflux     Counter:       4   Parms: SM      U1      
 Computing Diagnostic #     80  oceTAUX      Counter:       4   Parms: UU      U1      
           Vector  Mate for  oceTAUX      Diagnostic #     81  oceTAUY  exists 
 Computing Diagnostic #     81  oceTAUY      Counter:       4   Parms: VV      U1      
           Vector  Mate for  oceTAUY      Diagnostic #     80  oceTAUX  exists 
 Computing Diagnostic #     26  THETA        Counter:       4   Parms: SMR     MR      
 Computing Diagnostic #     27  SALT         Counter:       4   Parms: SMR     MR      
 Computing Diagnostic #     30  UVEL         Counter:       4   Parms: UUR     MR      
           Vector  Mate for  UVEL         Diagnostic #     31  VVEL     exists 
 Computing Diagnostic #     31  VVEL         Counter:       4   Parms: VVR     MR      
           Vector  Mate for  VVEL         Diagnostic #     30  UVEL     exists 
 Computing Diagnostic #    214  SIarea       Counter:       4   Parms: SM      M1      
 Computing Diagnostic #    217  SIheff       Counter:       4   Parms: SM      M1      
 Computing Diagnostic #    219  SIhsnow      Counter:       4   Parms: SM      M1      
 Computing Diagnostic #     83  sIceLoad     Counter:       4   Parms: SM      U1      
 Computing Diagnostic #    223  SIuice       Counter:       4   Parms: UU      M1      
           Vector  Mate for  SIuice       Diagnostic #    224  SIvice   exists 
 Computing Diagnostic #    224  SIvice       Counter:       4   Parms: VV      M1      
           Vector  Mate for  SIvice       Diagnostic #    223  SIuice   exists 
 Computing Diagnostic #    225  SItaux       Counter:       4   Parms: UU      U1      
           Vector  Mate for  SItaux       Diagnostic #    226  SItauy   exists 
 Computing Diagnostic #    226  SItauy       Counter:       4   Parms: VV      U1      
           Vector  Mate for  SItauy       Diagnostic #    225  SItaux   exists 
 Computing Diagnostic #    285  SIareaN      Counter:       4   Parms: SM      MX      
 Computing Diagnostic #    284  SIheffN      Counter:       4   Parms: SM      MX      
 Computing Diagnostic #    286  SIhsnowN     Counter:       4   Parms: SM      MX      
 Compute Stats, Diag. #    214  SIarea    vol(   0 ): 3.580E+14  Parms: SM      M1      
 Compute Stats, Diag. #    217  SIheff    vol(   0 ): 3.580E+14  Parms: SM      M1      
 Compute Stats, Diag. #    219  SIhsnow   vol(   0 ): 3.580E+14  Parms: SM      M1      
 Compute Stats, Diag. #     83  sIceLoad  vol(   0 ): 3.580E+14  Parms: SM      U1      
 Compute Stats, Diag. #    223  SIuice    vol(   0 ): 3.513E+14  Parms: UU      M1      
 Compute Stats, Diag. #    224  SIvice    vol(   0 ): 3.508E+14  Parms: VV      M1      
 Compute Stats, Diag. #    225  SItaux    vol(   0 ): 3.513E+14  Parms: UU      U1      
 Compute Stats, Diag. #    226  SItauy    vol(   0 ): 3.508E+14  Parms: VV      U1      
 cg2d: Sum(rhs),rhsMax =  -5.97614693357774E+00  2.92456826213826E-01
 Compute Stats, Diag. #    214  SIarea    vol(   0 ): 3.580E+14  Parms: SM      M1      
 Compute Stats, Diag. #    217  SIheff    vol(   0 ): 3.580E+14  Parms: SM      M1      
 Compute Stats, Diag. #    219  SIhsnow   vol(   0 ): 3.580E+14  Parms: SM      M1      
 Compute Stats, Diag. #     83  sIceLoad  vol(   0 ): 3.580E+14  Parms: SM      U1      
 Compute Stats, Diag. #    223  SIuice    vol(   0 ): 3.513E+14  Parms: UU      M1      
 Compute Stats, Diag. #    224  SIvice    vol(   0 ): 3.508E+14  Parms: VV      M1      
 Compute Stats, Diag. #    225  SItaux    vol(   0 ): 3.513E+14  Parms: UU      U1      
 Compute Stats, Diag. #    226  SItauy    vol(   0 ): 3.508E+14  Parms: VV      U1      
 cg2d: Sum(rhs),rhsMax =  -6.14031830193025E+00  2.92384541946308E-01
 Compute Stats, Diag. #    214  SIarea    vol(   0 ): 3.580E+14  Parms: SM      M1      
 Compute Stats, Diag. #    217  SIheff    vol(   0 ): 3.580E+14  Parms: SM      M1      
 Compute Stats, Diag. #    219  SIhsnow   vol(   0 ): 3.580E+14  Parms: SM      M1      
 Compute Stats, Diag. #     83  sIceLoad  vol(   0 ): 3.580E+14  Parms: SM      U1      
 Compute Stats, Diag. #    223  SIuice    vol(   0 ): 3.513E+14  Parms: UU      M1      
 Compute Stats, Diag. #    224  SIvice    vol(   0 ): 3.508E+14  Parms: VV      M1      
 Compute Stats, Diag. #    225  SItaux    vol(   0 ): 3.513E+14  Parms: UU      U1      
 Compute Stats, Diag. #    226  SItauy    vol(   0 ): 3.508E+14  Parms: VV      U1      
 cg2d: Sum(rhs),rhsMax =  -6.31302320630245E+00  2.92311395118669E-01
 Compute Stats, Diag. #    214  SIarea    vol(   0 ): 3.580E+14  Parms: SM      M1      
 Compute Stats, Diag. #    217  SIheff    vol(   0 ): 3.580E+14  Parms: SM      M1      
 Compute Stats, Diag. #    219  SIhsnow   vol(   0 ): 3.580E+14  Parms: SM      M1      
 Compute Stats, Diag. #     83  sIceLoad  vol(   0 ): 3.580E+14  Parms: SM      U1      
 Compute Stats, Diag. #    223  SIuice    vol(   0 ): 3.513E+14  Parms: UU      M1      
 Compute Stats, Diag. #    224  SIvice    vol(   0 ): 3.508E+14  Parms: VV      M1      
 Compute Stats, Diag. #    225  SItaux    vol(   0 ): 3.513E+14  Parms: UU      U1      
 Compute Stats, Diag. #    226  SItauy    vol(   0 ): 3.508E+14  Parms: VV      U1      
 cg2d: Sum(rhs),rhsMax =  -6.48362890931988E+00  2.92237394156529E-01
(PID.TID 0000.0001)      cg2d_init_res =   3.93068937510391E-02
(PID.TID 0000.0001)      cg2d_iters(min,last) =      -1      23
(PID.TID 0000.0001)      cg2d_last_res =   2.25978678527254E-05
(PID.TID 0000.0001) // =======================================================
(PID.TID 0000.0001) // Begin MONITOR dynamic field statistics
(PID.TID 0000.0001) // =======================================================
(PID.TID 0000.0001) %MON time_tsnumber                =                   736
(PID.TID 0000.0001) %MON time_secondsf                =   6.6240000000000E+05
(PID.TID 0000.0001) %MON dynstat_eta_max              =   1.0399232249200E+00
(PID.TID 0000.0001) %MON dynstat_eta_min              =  -1.8561913364468E+00
(PID.TID 0000.0001) %MON dynstat_eta_mean             =   2.0509788973857E-04
(PID.TID 0000.0001) %MON dynstat_eta_sd               =   6.3465063243008E-01
(PID.TID 0000.0001) %MON dynstat_eta_del2             =   5.3063731813297E-05
(PID.TID 0000.0001) %MON dynstat_uvel_max             =   7.1963783840310E-01
(PID.TID 0000.0001) %MON dynstat_uvel_min             =  -6.7340121399227E-01
(PID.TID 0000.0001) %MON dynstat_uvel_mean            =   1.3685126188208E-03
(PID.TID 0000.0001) %MON dynstat_uvel_sd              =   1.8575751839140E-02
(PID.TID 0000.0001) %MON dynstat_uvel_del2            =   7.1954032389784E-06
(PID.TID 0000.0001) %MON dynstat_vvel_max             =   5.0007169660025E-01
(PID.TID 0000.0001) %MON dynstat_vvel_min             =  -8.7220420028801E-01
(PID.TID 0000.0001) %MON dynstat_vvel_mean            =   1.1282148568979E-03
(PID.TID 0000.0001) %MON dynstat_vvel_sd              =   1.9403460401330E-02
(PID.TID 0000.0001) %MON dynstat_vvel_del2            =   7.2965674218389E-06
(PID.TID 0000.0001) %MON dynstat_wvel_max             =   3.7142209797384E-04
(PID.TID 0000.0001) %MON dynstat_wvel_min             =  -8.4464978962381E-04
(PID.TID 0000.0001) %MON dynstat_wvel_mean            =   4.0061763873423E-09
(PID.TID 0000.0001) %MON dynstat_wvel_sd              =   1.9180760534675E-05
(PID.TID 0000.0001) %MON dynstat_wvel_del2            =   1.4132066943263E-08
(PID.TID 0000.0001) %MON dynstat_theta_max            =   3.2123419033006E+01
(PID.TID 0000.0001) %MON dynstat_theta_min            =  -2.0399482261370E+00
(PID.TID 0000.0001) %MON dynstat_theta_mean           =   3.5902587643496E+00
(PID.TID 0000.0001) %MON dynstat_theta_sd             =   4.4365920979230E+00
(PID.TID 0000.0001) %MON dynstat_theta_del2           =   9.2064681494007E-05
(PID.TID 0000.0001) %MON dynstat_salt_max             =   4.0711551792315E+01
(PID.TID 0000.0001) %MON dynstat_salt_min             =   6.5955437954900E+00
(PID.TID 0000.0001) %MON dynstat_salt_mean            =   3.4725569895356E+01
(PID.TID 0000.0001) %MON dynstat_salt_sd              =   3.7705988049822E-01
(PID.TID 0000.0001) %MON dynstat_salt_del2            =   3.6159395616333E-05
(PID.TID 0000.0001) %MON dynstat_sst_max              =   3.2120295781230E+01
(PID.TID 0000.0001) %MON dynstat_sst_min              =  -1.8091941744750E+00
(PID.TID 0000.0001) %MON dynstat_sst_mean             =   1.8470877601528E+01
(PID.TID 0000.0001) %MON dynstat_sst_sd               =   1.0246094739916E+01
(PID.TID 0000.0001) %MON dynstat_sst_del2             =   7.9703795871783E-04
(PID.TID 0000.0001) %MON dynstat_sss_max              =   3.9102970011658E+01
(PID.TID 0000.0001) %MON dynstat_sss_min              =   6.5955437954900E+00
(PID.TID 0000.0001) %MON dynstat_sss_mean             =   3.4700039664618E+01
(PID.TID 0000.0001) %MON dynstat_sss_sd               =   1.1709395480549E+00
(PID.TID 0000.0001) %MON dynstat_sss_del2             =   1.1263991040754E-03
(PID.TID 0000.0001) %MON forcing_qnet_max             =   6.2178899034834E+02
(PID.TID 0000.0001) %MON forcing_qnet_min             =  -8.1907433470306E+02
(PID.TID 0000.0001) %MON forcing_qnet_mean            =   1.8912344533738E+01
(PID.TID 0000.0001) %MON forcing_qnet_sd              =   1.9594846800850E+02
(PID.TID 0000.0001) %MON forcing_qnet_del2            =   3.0147141215507E-01
(PID.TID 0000.0001) %MON forcing_qsw_max              =   0.0000000000000E+00
(PID.TID 0000.0001) %MON forcing_qsw_min              =  -1.0542897899311E+02
(PID.TID 0000.0001) %MON forcing_qsw_mean             =  -1.5471007670569E+01
(PID.TID 0000.0001) %MON forcing_qsw_sd               =   2.7400218025623E+01
(PID.TID 0000.0001) %MON forcing_qsw_del2             =   2.0938282174807E-02
(PID.TID 0000.0001) %MON forcing_empmr_max            =   1.0057237232104E-03
(PID.TID 0000.0001) %MON forcing_empmr_min            =  -7.6128654181957E-02
(PID.TID 0000.0001) %MON forcing_empmr_mean           =  -6.1703450662609E-06
(PID.TID 0000.0001) %MON forcing_empmr_sd             =   3.2546549020353E-04
(PID.TID 0000.0001) %MON forcing_empmr_del2           =   3.6524009977144E-06
(PID.TID 0000.0001) %MON forcing_fu_max               =   6.8110677599907E-01
(PID.TID 0000.0001) %MON forcing_fu_min               =  -6.9862246513367E-01
(PID.TID 0000.0001) %MON forcing_fu_mean              =   2.9354695073445E-03
(PID.TID 0000.0001) %MON forcing_fu_sd                =   9.5545305930946E-02
(PID.TID 0000.0001) %MON forcing_fu_del2              =   1.2606022142695E-04
(PID.TID 0000.0001) %MON forcing_fv_max               =   8.1115150451660E-01
(PID.TID 0000.0001) %MON forcing_fv_min               =  -1.0235709547997E+00
(PID.TID 0000.0001) %MON forcing_fv_mean              =  -1.0264717314598E-02
(PID.TID 0000.0001) %MON forcing_fv_sd                =   1.0446431806850E-01
(PID.TID 0000.0001) %MON forcing_fv_del2              =   1.2691892942401E-04
(PID.TID 0000.0001) %MON trAdv_CFL_u_max              =   1.0214886418042E-02
(PID.TID 0000.0001) %MON trAdv_CFL_v_max              =   1.2353242351936E-02
(PID.TID 0000.0001) %MON trAdv_CFL_w_max              =   2.1054086593489E-02
(PID.TID 0000.0001) %MON advcfl_uvel_max              =   7.2499560347203E-03
(PID.TID 0000.0001) %MON advcfl_vvel_max              =   1.0825880333950E-02
(PID.TID 0000.0001) %MON advcfl_wvel_max              =   2.2307325072315E-02
(PID.TID 0000.0001) %MON advcfl_W_hf_max              =   2.2411421660046E-02
(PID.TID 0000.0001) %MON pe_b_mean                    =   5.2981925125305E-04
(PID.TID 0000.0001) %MON ke_max                       =   3.8918395031320E-01
(PID.TID 0000.0001) %MON ke_mean                      =   3.4944502411437E-04
(PID.TID 0000.0001) %MON ke_vol                       =   1.3349979484351E+18
(PID.TID 0000.0001) %MON vort_r_min                   =  -1.3541696558645E-05
(PID.TID 0000.0001) %MON vort_r_max                   =   1.8968491508480E-05
(PID.TID 0000.0001) %MON vort_a_mean                  =  -1.9727864647440E-05
(PID.TID 0000.0001) %MON vort_a_sd                    =   7.4542986366265E-05
(PID.TID 0000.0001) %MON vort_p_mean                  =  -2.1760532602865E-05
(PID.TID 0000.0001) %MON vort_p_sd                    =   9.7245708089072E-05
(PID.TID 0000.0001) %MON surfExpan_theta_mean         =  -1.8058482604786E-08
(PID.TID 0000.0001) %MON surfExpan_salt_mean          =   3.2169099135310E-08
(PID.TID 0000.0001) // =======================================================
(PID.TID 0000.0001) // End MONITOR dynamic field statistics
(PID.TID 0000.0001) // =======================================================
(PID.TID 0000.0001) // =======================================================
(PID.TID 0000.0001) // Begin MONITOR SEAICE statistics
(PID.TID 0000.0001) // =======================================================
(PID.TID 0000.0001) %MON seaice_tsnumber              =                   736
(PID.TID 0000.0001) %MON seaice_time_sec              =   6.6240000000000E+05
(PID.TID 0000.0001) %MON seaice_uice_max              =   4.0000000000000E-01
(PID.TID 0000.0001) %MON seaice_uice_min              =  -4.0000000000000E-01
(PID.TID 0000.0001) %MON seaice_uice_mean             =  -8.3054598624025E-03
(PID.TID 0000.0001) %MON seaice_uice_sd               =   1.9802383574176E-01
(PID.TID 0000.0001) %MON seaice_uice_del2             =   2.2931571122150E-04
(PID.TID 0000.0001) %MON seaice_vice_max              =   4.0000000000000E-01
(PID.TID 0000.0001) %MON seaice_vice_min              =  -4.0000000000000E-01
(PID.TID 0000.0001) %MON seaice_vice_mean             =  -2.1960776359499E-02
(PID.TID 0000.0001) %MON seaice_vice_sd               =   2.1302038025672E-01
(PID.TID 0000.0001) %MON seaice_vice_del2             =   2.3932563818061E-04
(PID.TID 0000.0001) %MON seaice_area_max              =   1.0000000000000E+00
(PID.TID 0000.0001) %MON seaice_area_min              =   0.0000000000000E+00
(PID.TID 0000.0001) %MON seaice_area_mean             =   6.5923973911558E-02
(PID.TID 0000.0001) %MON seaice_area_sd               =   2.2991858296378E-01
(PID.TID 0000.0001) %MON seaice_area_del2             =   3.9347338226204E-04
(PID.TID 0000.0001) %MON seaice_heff_max              =   2.5005162998103E+01
(PID.TID 0000.0001) %MON seaice_heff_min              =   0.0000000000000E+00
(PID.TID 0000.0001) %MON seaice_heff_mean             =   2.1270532862355E-01
(PID.TID 0000.0001) %MON seaice_heff_sd               =   1.0666460733159E+00
(PID.TID 0000.0001) %MON seaice_heff_del2             =   3.8434720578359E-03
(PID.TID 0000.0001) %MON seaice_hsnow_max             =   8.2591584059410E+00
(PID.TID 0000.0001) %MON seaice_hsnow_min             =   0.0000000000000E+00
(PID.TID 0000.0001) %MON seaice_hsnow_mean            =   2.4069447280229E-02
(PID.TID 0000.0001) %MON seaice_hsnow_sd              =   1.5622106057537E-01
(PID.TID 0000.0001) %MON seaice_hsnow_del2            =   1.2397861155856E-03
(PID.TID 0000.0001) // =======================================================
(PID.TID 0000.0001) // End MONITOR SEAICE statistics
(PID.TID 0000.0001) // =======================================================
 Computing Diagnostic #     86  oceQnet      Counter:       4   Parms: SM      U1      
 Computing Diagnostic #     87  oceQsw       Counter:       4   Parms: SM      U1      
 Computing Diagnostic #     84  oceFWflx     Counter:       4   Parms: SM      U1      
 Computing Diagnostic #     85  oceSflux     Counter:       4   Parms: SM      U1      
 Computing Diagnostic #     80  oceTAUX      Counter:       4   Parms: UU      U1      
           Vector  Mate for  oceTAUX      Diagnostic #     81  oceTAUY  exists 
 Computing Diagnostic #     81  oceTAUY      Counter:       4   Parms: VV      U1      
           Vector  Mate for  oceTAUY      Diagnostic #     80  oceTAUX  exists 
 Computing Diagnostic #     26  THETA        Counter:       4   Parms: SMR     MR      
 Computing Diagnostic #     27  SALT         Counter:       4   Parms: SMR     MR      
 Computing Diagnostic #     30  UVEL         Counter:       4   Parms: UUR     MR      
           Vector  Mate for  UVEL         Diagnostic #     31  VVEL     exists 
 Computing Diagnostic #     31  VVEL         Counter:       4   Parms: VVR     MR      
           Vector  Mate for  VVEL         Diagnostic #     30  UVEL     exists 
 Computing Diagnostic #    214  SIarea       Counter:       4   Parms: SM      M1      
 Computing Diagnostic #    217  SIheff       Counter:       4   Parms: SM      M1      
 Computing Diagnostic #    219  SIhsnow      Counter:       4   Parms: SM      M1      
 Computing Diagnostic #     83  sIceLoad     Counter:       4   Parms: SM      U1      
 Computing Diagnostic #    223  SIuice       Counter:       4   Parms: UU      M1      
           Vector  Mate for  SIuice       Diagnostic #    224  SIvice   exists 
 Computing Diagnostic #    224  SIvice       Counter:       4   Parms: VV      M1      
           Vector  Mate for  SIvice       Diagnostic #    223  SIuice   exists 
 Computing Diagnostic #    225  SItaux       Counter:       4   Parms: UU      U1      
           Vector  Mate for  SItaux       Diagnostic #    226  SItauy   exists 
 Computing Diagnostic #    226  SItauy       Counter:       4   Parms: VV      U1      
           Vector  Mate for  SItauy       Diagnostic #    225  SItaux   exists 
 Computing Diagnostic #    285  SIareaN      Counter:       4   Parms: SM      MX      
 Computing Diagnostic #    284  SIheffN      Counter:       4   Parms: SM      MX      
 Computing Diagnostic #    286  SIhsnowN     Counter:       4   Parms: SM      MX      
 Compute Stats, Diag. #    214  SIarea    vol(   0 ): 3.580E+14  Parms: SM      M1      
 Compute Stats, Diag. #    217  SIheff    vol(   0 ): 3.580E+14  Parms: SM      M1      
 Compute Stats, Diag. #    219  SIhsnow   vol(   0 ): 3.580E+14  Parms: SM      M1      
 Compute Stats, Diag. #     83  sIceLoad  vol(   0 ): 3.580E+14  Parms: SM      U1      
 Compute Stats, Diag. #    223  SIuice    vol(   0 ): 3.513E+14  Parms: UU      M1      
 Compute Stats, Diag. #    224  SIvice    vol(   0 ): 3.508E+14  Parms: VV      M1      
 Compute Stats, Diag. #    225  SItaux    vol(   0 ): 3.513E+14  Parms: UU      U1      
 Compute Stats, Diag. #    226  SItauy    vol(   0 ): 3.508E+14  Parms: VV      U1      
 cg2d: Sum(rhs),rhsMax =  -6.66036965896166E+00  2.92163190070075E-01
 Compute Stats, Diag. #    214  SIarea    vol(   0 ): 3.580E+14  Parms: SM      M1      
 Compute Stats, Diag. #    217  SIheff    vol(   0 ): 3.580E+14  Parms: SM      M1      
 Compute Stats, Diag. #    219  SIhsnow   vol(   0 ): 3.580E+14  Parms: SM      M1      
 Compute Stats, Diag. #     83  sIceLoad  vol(   0 ): 3.580E+14  Parms: SM      U1      
 Compute Stats, Diag. #    223  SIuice    vol(   0 ): 3.513E+14  Parms: UU      M1      
 Compute Stats, Diag. #    224  SIvice    vol(   0 ): 3.508E+14  Parms: VV      M1      
 Compute Stats, Diag. #    225  SItaux    vol(   0 ): 3.513E+14  Parms: UU      U1      
 Compute Stats, Diag. #    226  SItauy    vol(   0 ): 3.508E+14  Parms: VV      U1      
 cg2d: Sum(rhs),rhsMax =  -6.84054145736266E+00  2.92089522761265E-01
 Compute Stats, Diag. #    214  SIarea    vol(   0 ): 3.580E+14  Parms: SM      M1      
 Compute Stats, Diag. #    217  SIheff    vol(   0 ): 3.580E+14  Parms: SM      M1      
 Compute Stats, Diag. #    219  SIhsnow   vol(   0 ): 3.580E+14  Parms: SM      M1      
 Compute Stats, Diag. #     83  sIceLoad  vol(   0 ): 3.580E+14  Parms: SM      U1      
 Compute Stats, Diag. #    223  SIuice    vol(   0 ): 3.513E+14  Parms: UU      M1      
 Compute Stats, Diag. #    224  SIvice    vol(   0 ): 3.508E+14  Parms: VV      M1      
 Compute Stats, Diag. #    225  SItaux    vol(   0 ): 3.513E+14  Parms: UU      U1      
 Compute Stats, Diag. #    226  SItauy    vol(   0 ): 3.508E+14  Parms: VV      U1      
 cg2d: Sum(rhs),rhsMax =  -7.02111614671880E+00  2.92016884299327E-01
 Compute Stats, Diag. #    214  SIarea    vol(   0 ): 3.580E+14  Parms: SM      M1      
 Compute Stats, Diag. #    217  SIheff    vol(   0 ): 3.580E+14  Parms: SM      M1      
 Compute Stats, Diag. #    219  SIhsnow   vol(   0 ): 3.580E+14  Parms: SM      M1      
 Compute Stats, Diag. #     83  sIceLoad  vol(   0 ): 3.580E+14  Parms: SM      U1      
 Compute Stats, Diag. #    223  SIuice    vol(   0 ): 3.513E+14  Parms: UU      M1      
 Compute Stats, Diag. #    224  SIvice    vol(   0 ): 3.508E+14  Parms: VV      M1      
 Compute Stats, Diag. #    225  SItaux    vol(   0 ): 3.513E+14  Parms: UU      U1      
 Compute Stats, Diag. #    226  SItauy    vol(   0 ): 3.508E+14  Parms: VV      U1      
 cg2d: Sum(rhs),rhsMax =  -7.21230308648389E+00  2.91945592026601E-01
 Computing Diagnostic #     86  oceQnet      Counter:       4   Parms: SM      U1      
 Computing Diagnostic #     87  oceQsw       Counter:       4   Parms: SM      U1      
 Computing Diagnostic #     84  oceFWflx     Counter:       4   Parms: SM      U1      
 Computing Diagnostic #     85  oceSflux     Counter:       4   Parms: SM      U1      
 Computing Diagnostic #     80  oceTAUX      Counter:       4   Parms: UU      U1      
           Vector  Mate for  oceTAUX      Diagnostic #     81  oceTAUY  exists 
 Computing Diagnostic #     81  oceTAUY      Counter:       4   Parms: VV      U1      
           Vector  Mate for  oceTAUY      Diagnostic #     80  oceTAUX  exists 
 Computing Diagnostic #     26  THETA        Counter:       4   Parms: SMR     MR      
 Computing Diagnostic #     27  SALT         Counter:       4   Parms: SMR     MR      
 Computing Diagnostic #     30  UVEL         Counter:       4   Parms: UUR     MR      
           Vector  Mate for  UVEL         Diagnostic #     31  VVEL     exists 
 Computing Diagnostic #     31  VVEL         Counter:       4   Parms: VVR     MR      
           Vector  Mate for  VVEL         Diagnostic #     30  UVEL     exists 
 Computing Diagnostic #    214  SIarea       Counter:       4   Parms: SM      M1      
 Computing Diagnostic #    217  SIheff       Counter:       4   Parms: SM      M1      
 Computing Diagnostic #    219  SIhsnow      Counter:       4   Parms: SM      M1      
 Computing Diagnostic #     83  sIceLoad     Counter:       4   Parms: SM      U1      
 Computing Diagnostic #    223  SIuice       Counter:       4   Parms: UU      M1      
           Vector  Mate for  SIuice       Diagnostic #    224  SIvice   exists 
 Computing Diagnostic #    224  SIvice       Counter:       4   Parms: VV      M1      
           Vector  Mate for  SIvice       Diagnostic #    223  SIuice   exists 
 Computing Diagnostic #    225  SItaux       Counter:       4   Parms: UU      U1      
           Vector  Mate for  SItaux       Diagnostic #    226  SItauy   exists 
 Computing Diagnostic #    226  SItauy       Counter:       4   Parms: VV      U1      
           Vector  Mate for  SItauy       Diagnostic #    225  SItaux   exists 
 Computing Diagnostic #    285  SIareaN      Counter:       4   Parms: SM      MX      
 Computing Diagnostic #    284  SIheffN      Counter:       4   Parms: SM      MX      
 Computing Diagnostic #    286  SIhsnowN     Counter:       4   Parms: SM      MX      
 Compute Stats, Diag. #    214  SIarea    vol(   0 ): 3.580E+14  Parms: SM      M1      
 Compute Stats, Diag. #    217  SIheff    vol(   0 ): 3.580E+14  Parms: SM      M1      
 Compute Stats, Diag. #    219  SIhsnow   vol(   0 ): 3.580E+14  Parms: SM      M1      
 Compute Stats, Diag. #     83  sIceLoad  vol(   0 ): 3.580E+14  Parms: SM      U1      
 Compute Stats, Diag. #    223  SIuice    vol(   0 ): 3.513E+14  Parms: UU      M1      
 Compute Stats, Diag. #    224  SIvice    vol(   0 ): 3.508E+14  Parms: VV      M1      
 Compute Stats, Diag. #    225  SItaux    vol(   0 ): 3.513E+14  Parms: UU      U1      
 Compute Stats, Diag. #    226  SItauy    vol(   0 ): 3.508E+14  Parms: VV      U1      
 cg2d: Sum(rhs),rhsMax =  -7.39957613785930E+00  2.91876462254789E-01
 Compute Stats, Diag. #    214  SIarea    vol(   0 ): 3.580E+14  Parms: SM      M1      
 Compute Stats, Diag. #    217  SIheff    vol(   0 ): 3.580E+14  Parms: SM      M1      
 Compute Stats, Diag. #    219  SIhsnow   vol(   0 ): 3.580E+14  Parms: SM      M1      
 Compute Stats, Diag. #     83  sIceLoad  vol(   0 ): 3.580E+14  Parms: SM      U1      
 Compute Stats, Diag. #    223  SIuice    vol(   0 ): 3.513E+14  Parms: UU      M1      
 Compute Stats, Diag. #    224  SIvice    vol(   0 ): 3.508E+14  Parms: VV      M1      
 Compute Stats, Diag. #    225  SItaux    vol(   0 ): 3.513E+14  Parms: UU      U1      
 Compute Stats, Diag. #    226  SItauy    vol(   0 ): 3.508E+14  Parms: VV      U1      
 cg2d: Sum(rhs),rhsMax =  -7.58038808368491E+00  2.91810032922351E-01
 Compute Stats, Diag. #    214  SIarea    vol(   0 ): 3.580E+14  Parms: SM      M1      
 Compute Stats, Diag. #    217  SIheff    vol(   0 ): 3.580E+14  Parms: SM      M1      
 Compute Stats, Diag. #    219  SIhsnow   vol(   0 ): 3.580E+14  Parms: SM      M1      
 Compute Stats, Diag. #     83  sIceLoad  vol(   0 ): 3.580E+14  Parms: SM      U1      
 Compute Stats, Diag. #    223  SIuice    vol(   0 ): 3.513E+14  Parms: UU      M1      
 Compute Stats, Diag. #    224  SIvice    vol(   0 ): 3.508E+14  Parms: VV      M1      
 Compute Stats, Diag. #    225  SItaux    vol(   0 ): 3.513E+14  Parms: UU      U1      
 Compute Stats, Diag. #    226  SItauy    vol(   0 ): 3.508E+14  Parms: VV      U1      
 cg2d: Sum(rhs),rhsMax =  -7.76435125297157E+00  2.91746110615195E-01
 Compute Stats, Diag. #    214  SIarea    vol(   0 ): 3.580E+14  Parms: SM      M1      
 Compute Stats, Diag. #    217  SIheff    vol(   0 ): 3.580E+14  Parms: SM      M1      
 Compute Stats, Diag. #    219  SIhsnow   vol(   0 ): 3.580E+14  Parms: SM      M1      
 Compute Stats, Diag. #     83  sIceLoad  vol(   0 ): 3.580E+14  Parms: SM      U1      
 Compute Stats, Diag. #    223  SIuice    vol(   0 ): 3.513E+14  Parms: UU      M1      
 Compute Stats, Diag. #    224  SIvice    vol(   0 ): 3.508E+14  Parms: VV      M1      
 Compute Stats, Diag. #    225  SItaux    vol(   0 ): 3.513E+14  Parms: UU      U1      
 Compute Stats, Diag. #    226  SItauy    vol(   0 ): 3.508E+14  Parms: VV      U1      
 cg2d: Sum(rhs),rhsMax =  -7.94642998743610E+00  2.91685438023069E-01
(PID.TID 0000.0001)      cg2d_init_res =   3.97071317845917E-02
(PID.TID 0000.0001)      cg2d_iters(min,last) =      -1      22
(PID.TID 0000.0001)      cg2d_last_res =   2.80676656162185E-05
(PID.TID 0000.0001) // =======================================================
(PID.TID 0000.0001) // Begin MONITOR dynamic field statistics
(PID.TID 0000.0001) // =======================================================
(PID.TID 0000.0001) %MON time_tsnumber                =                   744
(PID.TID 0000.0001) %MON time_secondsf                =   6.6960000000000E+05
(PID.TID 0000.0001) %MON dynstat_eta_max              =   1.0403750639517E+00
(PID.TID 0000.0001) %MON dynstat_eta_min              =  -1.8548706854349E+00
(PID.TID 0000.0001) %MON dynstat_eta_mean             =   2.5137095971611E-04
(PID.TID 0000.0001) %MON dynstat_eta_sd               =   6.3453545550578E-01
(PID.TID 0000.0001) %MON dynstat_eta_del2             =   5.3003603932805E-05
(PID.TID 0000.0001) %MON dynstat_uvel_max             =   7.2105260511536E-01
(PID.TID 0000.0001) %MON dynstat_uvel_min             =  -6.7671036984682E-01
(PID.TID 0000.0001) %MON dynstat_uvel_mean            =   1.3659165348545E-03
(PID.TID 0000.0001) %MON dynstat_uvel_sd              =   1.8552542851610E-02
(PID.TID 0000.0001) %MON dynstat_uvel_del2            =   7.1867881090644E-06
(PID.TID 0000.0001) %MON dynstat_vvel_max             =   5.1017769821357E-01
(PID.TID 0000.0001) %MON dynstat_vvel_min             =  -8.6970415606360E-01
(PID.TID 0000.0001) %MON dynstat_vvel_mean            =   1.1298906143207E-03
(PID.TID 0000.0001) %MON dynstat_vvel_sd              =   1.9396590724884E-02
(PID.TID 0000.0001) %MON dynstat_vvel_del2            =   7.2848377005377E-06
(PID.TID 0000.0001) %MON dynstat_wvel_max             =   3.6025561723899E-04
(PID.TID 0000.0001) %MON dynstat_wvel_min             =  -8.4005513941312E-04
(PID.TID 0000.0001) %MON dynstat_wvel_mean            =   3.7596736581600E-09
(PID.TID 0000.0001) %MON dynstat_wvel_sd              =   1.8863803596481E-05
(PID.TID 0000.0001) %MON dynstat_wvel_del2            =   1.4003884662530E-08
(PID.TID 0000.0001) %MON dynstat_theta_max            =   3.2112054406194E+01
(PID.TID 0000.0001) %MON dynstat_theta_min            =  -2.0399276651409E+00
(PID.TID 0000.0001) %MON dynstat_theta_mean           =   3.5902525620811E+00
(PID.TID 0000.0001) %MON dynstat_theta_sd             =   4.4365775577128E+00
(PID.TID 0000.0001) %MON dynstat_theta_del2           =   9.1977239826350E-05
(PID.TID 0000.0001) %MON dynstat_salt_max             =   4.0711551499383E+01
(PID.TID 0000.0001) %MON dynstat_salt_min             =   6.3625223362392E+00
(PID.TID 0000.0001) %MON dynstat_salt_mean            =   3.4725569503384E+01
(PID.TID 0000.0001) %MON dynstat_salt_sd              =   3.7706114994749E-01
(PID.TID 0000.0001) %MON dynstat_salt_del2            =   3.6113958844963E-05
(PID.TID 0000.0001) %MON dynstat_sst_max              =   3.2099723270410E+01
(PID.TID 0000.0001) %MON dynstat_sst_min              =  -1.8072514866866E+00
(PID.TID 0000.0001) %MON dynstat_sst_mean             =   1.8471274876492E+01
(PID.TID 0000.0001) %MON dynstat_sst_sd               =   1.0247323740344E+01
(PID.TID 0000.0001) %MON dynstat_sst_del2             =   7.9579666294958E-04
(PID.TID 0000.0001) %MON dynstat_sss_max              =   3.9102731939351E+01
(PID.TID 0000.0001) %MON dynstat_sss_min              =   6.3625223362392E+00
(PID.TID 0000.0001) %MON dynstat_sss_mean             =   3.4700031138431E+01
(PID.TID 0000.0001) %MON dynstat_sss_sd               =   1.1712999072951E+00
(PID.TID 0000.0001) %MON dynstat_sss_del2             =   1.1231517887288E-03
(PID.TID 0000.0001) %MON forcing_qnet_max             =   6.2650016356501E+02
(PID.TID 0000.0001) %MON forcing_qnet_min             =  -1.4345987637218E+03
(PID.TID 0000.0001) %MON forcing_qnet_mean            =   8.2776910041228E+00
(PID.TID 0000.0001) %MON forcing_qnet_sd              =   2.0331968300586E+02
(PID.TID 0000.0001) %MON forcing_qnet_del2            =   3.0670055167112E-01
(PID.TID 0000.0001) %MON forcing_qsw_max              =   0.0000000000000E+00
(PID.TID 0000.0001) %MON forcing_qsw_min              =  -1.0921807823286E+02
(PID.TID 0000.0001) %MON forcing_qsw_mean             =  -1.7020021823934E+01
(PID.TID 0000.0001) %MON forcing_qsw_sd               =   2.8863906233017E+01
(PID.TID 0000.0001) %MON forcing_qsw_del2             =   2.1394945292102E-02
(PID.TID 0000.0001) %MON forcing_empmr_max            =   8.0349395284429E-04
(PID.TID 0000.0001) %MON forcing_empmr_min            =  -8.1762619316578E-02
(PID.TID 0000.0001) %MON forcing_empmr_mean           =  -6.5852934631646E-06
(PID.TID 0000.0001) %MON forcing_empmr_sd             =   3.3225768195357E-04
(PID.TID 0000.0001) %MON forcing_empmr_del2           =   3.4896266162183E-06
(PID.TID 0000.0001) %MON forcing_fu_max               =   6.5563571453095E-01
(PID.TID 0000.0001) %MON forcing_fu_min               =  -7.9154193401337E-01
(PID.TID 0000.0001) %MON forcing_fu_mean              =   2.8714459017246E-03
(PID.TID 0000.0001) %MON forcing_fu_sd                =   9.6756176500006E-02
(PID.TID 0000.0001) %MON forcing_fu_del2              =   1.2675110514550E-04
(PID.TID 0000.0001) %MON forcing_fv_max               =   8.4561458230019E-01
(PID.TID 0000.0001) %MON forcing_fv_min               =  -1.0551864504814E+00
(PID.TID 0000.0001) %MON forcing_fv_mean              =  -1.0156737172651E-02
(PID.TID 0000.0001) %MON forcing_fv_sd                =   1.0451441616060E-01
(PID.TID 0000.0001) %MON forcing_fv_del2              =   1.2606022950348E-04
(PID.TID 0000.0001) %MON trAdv_CFL_u_max              =   1.0203677571202E-02
(PID.TID 0000.0001) %MON trAdv_CFL_v_max              =   1.2398841847762E-02
(PID.TID 0000.0001) %MON trAdv_CFL_w_max              =   2.0617423595216E-02
(PID.TID 0000.0001) %MON advcfl_uvel_max              =   7.2688772986478E-03
(PID.TID 0000.0001) %MON advcfl_vvel_max              =   1.0802108072038E-02
(PID.TID 0000.0001) %MON advcfl_wvel_max              =   2.4325711288774E-02
(PID.TID 0000.0001) %MON advcfl_W_hf_max              =   2.4407867218301E-02
(PID.TID 0000.0001) %MON pe_b_mean                    =   5.2962698591011E-04
(PID.TID 0000.0001) %MON ke_max                       =   3.8758852405150E-01
(PID.TID 0000.0001) %MON ke_mean                      =   3.4889942961949E-04
(PID.TID 0000.0001) %MON ke_vol                       =   1.3349979648715E+18
(PID.TID 0000.0001) %MON vort_r_min                   =  -1.2317657740400E-05
(PID.TID 0000.0001) %MON vort_r_max                   =   1.8954844548797E-05
(PID.TID 0000.0001) %MON vort_a_mean                  =  -1.9727864647440E-05
(PID.TID 0000.0001) %MON vort_a_sd                    =   7.4542989486284E-05
(PID.TID 0000.0001) %MON vort_p_mean                  =  -2.1760532363322E-05
(PID.TID 0000.0001) %MON vort_p_sd                    =   9.7245778312087E-05
(PID.TID 0000.0001) %MON surfExpan_theta_mean         =  -3.8792525903378E-08
(PID.TID 0000.0001) %MON surfExpan_salt_mean          =   2.5724029157620E-08
(PID.TID 0000.0001) // =======================================================
(PID.TID 0000.0001) // End MONITOR dynamic field statistics
(PID.TID 0000.0001) // =======================================================
(PID.TID 0000.0001) // =======================================================
(PID.TID 0000.0001) // Begin MONITOR SEAICE statistics
(PID.TID 0000.0001) // =======================================================
(PID.TID 0000.0001) %MON seaice_tsnumber              =                   744
(PID.TID 0000.0001) %MON seaice_time_sec              =   6.6960000000000E+05
(PID.TID 0000.0001) %MON seaice_uice_max              =   4.0000000000000E-01
(PID.TID 0000.0001) %MON seaice_uice_min              =  -4.0000000000000E-01
(PID.TID 0000.0001) %MON seaice_uice_mean             =  -8.3054598624025E-03
(PID.TID 0000.0001) %MON seaice_uice_sd               =   1.9802383574176E-01
(PID.TID 0000.0001) %MON seaice_uice_del2             =   2.2931571122150E-04
(PID.TID 0000.0001) %MON seaice_vice_max              =   4.0000000000000E-01
(PID.TID 0000.0001) %MON seaice_vice_min              =  -4.0000000000000E-01
(PID.TID 0000.0001) %MON seaice_vice_mean             =  -2.1960776359499E-02
(PID.TID 0000.0001) %MON seaice_vice_sd               =   2.1302038025672E-01
(PID.TID 0000.0001) %MON seaice_vice_del2             =   2.3932563818061E-04
(PID.TID 0000.0001) %MON seaice_area_max              =   1.0000000000000E+00
(PID.TID 0000.0001) %MON seaice_area_min              =   0.0000000000000E+00
(PID.TID 0000.0001) %MON seaice_area_mean             =   6.5893062345687E-02
(PID.TID 0000.0001) %MON seaice_area_sd               =   2.2986462881829E-01
(PID.TID 0000.0001) %MON seaice_area_del2             =   3.9299345700685E-04
(PID.TID 0000.0001) %MON seaice_heff_max              =   2.5003251130576E+01
(PID.TID 0000.0001) %MON seaice_heff_min              =   0.0000000000000E+00
(PID.TID 0000.0001) %MON seaice_heff_mean             =   2.1267267242498E-01
(PID.TID 0000.0001) %MON seaice_heff_sd               =   1.0666151837693E+00
(PID.TID 0000.0001) %MON seaice_heff_del2             =   3.8427968841363E-03
(PID.TID 0000.0001) %MON seaice_hsnow_max             =   8.2585301320651E+00
(PID.TID 0000.0001) %MON seaice_hsnow_min             =   0.0000000000000E+00
(PID.TID 0000.0001) %MON seaice_hsnow_mean            =   2.4058959171834E-02
(PID.TID 0000.0001) %MON seaice_hsnow_sd              =   1.5620015947212E-01
(PID.TID 0000.0001) %MON seaice_hsnow_del2            =   1.2396662562137E-03
(PID.TID 0000.0001) // =======================================================
(PID.TID 0000.0001) // End MONITOR SEAICE statistics
(PID.TID 0000.0001) // =======================================================
 Computing Diagnostic #     86  oceQnet      Counter:       4   Parms: SM      U1      
 Computing Diagnostic #     87  oceQsw       Counter:       4   Parms: SM      U1      
 Computing Diagnostic #     84  oceFWflx     Counter:       4   Parms: SM      U1      
 Computing Diagnostic #     85  oceSflux     Counter:       4   Parms: SM      U1      
 Computing Diagnostic #     80  oceTAUX      Counter:       4   Parms: UU      U1      
           Vector  Mate for  oceTAUX      Diagnostic #     81  oceTAUY  exists 
 Computing Diagnostic #     81  oceTAUY      Counter:       4   Parms: VV      U1      
           Vector  Mate for  oceTAUY      Diagnostic #     80  oceTAUX  exists 
 Computing Diagnostic #     26  THETA        Counter:       4   Parms: SMR     MR      
 Computing Diagnostic #     27  SALT         Counter:       4   Parms: SMR     MR      
 Computing Diagnostic #     30  UVEL         Counter:       4   Parms: UUR     MR      
           Vector  Mate for  UVEL         Diagnostic #     31  VVEL     exists 
 Computing Diagnostic #     31  VVEL         Counter:       4   Parms: VVR     MR      
           Vector  Mate for  VVEL         Diagnostic #     30  UVEL     exists 
 Computing Diagnostic #    214  SIarea       Counter:       4   Parms: SM      M1      
 Computing Diagnostic #    217  SIheff       Counter:       4   Parms: SM      M1      
 Computing Diagnostic #    219  SIhsnow      Counter:       4   Parms: SM      M1      
 Computing Diagnostic #     83  sIceLoad     Counter:       4   Parms: SM      U1      
 Computing Diagnostic #    223  SIuice       Counter:       4   Parms: UU      M1      
           Vector  Mate for  SIuice       Diagnostic #    224  SIvice   exists 
 Computing Diagnostic #    224  SIvice       Counter:       4   Parms: VV      M1      
           Vector  Mate for  SIvice       Diagnostic #    223  SIuice   exists 
 Computing Diagnostic #    225  SItaux       Counter:       4   Parms: UU      U1      
           Vector  Mate for  SItaux       Diagnostic #    226  SItauy   exists 
 Computing Diagnostic #    226  SItauy       Counter:       4   Parms: VV      U1      
           Vector  Mate for  SItauy       Diagnostic #    225  SItaux   exists 
 Computing Diagnostic #    285  SIareaN      Counter:       4   Parms: SM      MX      
 Computing Diagnostic #    284  SIheffN      Counter:       4   Parms: SM      MX      
 Computing Diagnostic #    286  SIhsnowN     Counter:       4   Parms: SM      MX      
 Compute Stats, Diag. #    214  SIarea    vol(   0 ): 3.580E+14  Parms: SM      M1      
 Compute Stats, Diag. #    217  SIheff    vol(   0 ): 3.580E+14  Parms: SM      M1      
 Compute Stats, Diag. #    219  SIhsnow   vol(   0 ): 3.580E+14  Parms: SM      M1      
 Compute Stats, Diag. #     83  sIceLoad  vol(   0 ): 3.580E+14  Parms: SM      U1      
 Compute Stats, Diag. #    223  SIuice    vol(   0 ): 3.513E+14  Parms: UU      M1      
 Compute Stats, Diag. #    224  SIvice    vol(   0 ): 3.508E+14  Parms: VV      M1      
 Compute Stats, Diag. #    225  SItaux    vol(   0 ): 3.513E+14  Parms: UU      U1      
 Compute Stats, Diag. #    226  SItauy    vol(   0 ): 3.508E+14  Parms: VV      U1      
 cg2d: Sum(rhs),rhsMax =  -8.13426937974580E+00  2.91628312448090E-01
 Compute Stats, Diag. #    214  SIarea    vol(   0 ): 3.580E+14  Parms: SM      M1      
 Compute Stats, Diag. #    217  SIheff    vol(   0 ): 3.580E+14  Parms: SM      M1      
 Compute Stats, Diag. #    219  SIhsnow   vol(   0 ): 3.580E+14  Parms: SM      M1      
 Compute Stats, Diag. #     83  sIceLoad  vol(   0 ): 3.580E+14  Parms: SM      U1      
 Compute Stats, Diag. #    223  SIuice    vol(   0 ): 3.513E+14  Parms: UU      M1      
 Compute Stats, Diag. #    224  SIvice    vol(   0 ): 3.508E+14  Parms: VV      M1      
 Compute Stats, Diag. #    225  SItaux    vol(   0 ): 3.513E+14  Parms: UU      U1      
 Compute Stats, Diag. #    226  SItauy    vol(   0 ): 3.508E+14  Parms: VV      U1      
 cg2d: Sum(rhs),rhsMax =  -8.31289355364592E+00  2.91575311348380E-01
 Compute Stats, Diag. #    214  SIarea    vol(   0 ): 3.580E+14  Parms: SM      M1      
 Compute Stats, Diag. #    217  SIheff    vol(   0 ): 3.580E+14  Parms: SM      M1      
 Compute Stats, Diag. #    219  SIhsnow   vol(   0 ): 3.580E+14  Parms: SM      M1      
 Compute Stats, Diag. #     83  sIceLoad  vol(   0 ): 3.580E+14  Parms: SM      U1      
 Compute Stats, Diag. #    223  SIuice    vol(   0 ): 3.513E+14  Parms: UU      M1      
 Compute Stats, Diag. #    224  SIvice    vol(   0 ): 3.508E+14  Parms: VV      M1      
 Compute Stats, Diag. #    225  SItaux    vol(   0 ): 3.513E+14  Parms: UU      U1      
 Compute Stats, Diag. #    226  SItauy    vol(   0 ): 3.508E+14  Parms: VV      U1      
 cg2d: Sum(rhs),rhsMax =  -8.49024820994133E+00  2.91526456541278E-01
 Compute Stats, Diag. #    214  SIarea    vol(   0 ): 3.580E+14  Parms: SM      M1      
 Compute Stats, Diag. #    217  SIheff    vol(   0 ): 3.580E+14  Parms: SM      M1      
 Compute Stats, Diag. #    219  SIhsnow   vol(   0 ): 3.580E+14  Parms: SM      M1      
 Compute Stats, Diag. #     83  sIceLoad  vol(   0 ): 3.580E+14  Parms: SM      U1      
 Compute Stats, Diag. #    223  SIuice    vol(   0 ): 3.513E+14  Parms: UU      M1      
 Compute Stats, Diag. #    224  SIvice    vol(   0 ): 3.508E+14  Parms: VV      M1      
 Compute Stats, Diag. #    225  SItaux    vol(   0 ): 3.513E+14  Parms: UU      U1      
 Compute Stats, Diag. #    226  SItauy    vol(   0 ): 3.508E+14  Parms: VV      U1      
 cg2d: Sum(rhs),rhsMax =  -8.66650193599239E+00  2.91481637600246E-01
 Computing Diagnostic #     86  oceQnet      Counter:       4   Parms: SM      U1      
 Computing Diagnostic #     87  oceQsw       Counter:       4   Parms: SM      U1      
 Computing Diagnostic #     84  oceFWflx     Counter:       4   Parms: SM      U1      
 Computing Diagnostic #     85  oceSflux     Counter:       4   Parms: SM      U1      
 Computing Diagnostic #     80  oceTAUX      Counter:       4   Parms: UU      U1      
           Vector  Mate for  oceTAUX      Diagnostic #     81  oceTAUY  exists 
 Computing Diagnostic #     81  oceTAUY      Counter:       4   Parms: VV      U1      
           Vector  Mate for  oceTAUY      Diagnostic #     80  oceTAUX  exists 
 Computing Diagnostic #     26  THETA        Counter:       4   Parms: SMR     MR      
 Computing Diagnostic #     27  SALT         Counter:       4   Parms: SMR     MR      
 Computing Diagnostic #     30  UVEL         Counter:       4   Parms: UUR     MR      
           Vector  Mate for  UVEL         Diagnostic #     31  VVEL     exists 
 Computing Diagnostic #     31  VVEL         Counter:       4   Parms: VVR     MR      
           Vector  Mate for  VVEL         Diagnostic #     30  UVEL     exists 
 Computing Diagnostic #    214  SIarea       Counter:       4   Parms: SM      M1      
 Computing Diagnostic #    217  SIheff       Counter:       4   Parms: SM      M1      
 Computing Diagnostic #    219  SIhsnow      Counter:       4   Parms: SM      M1      
 Computing Diagnostic #     83  sIceLoad     Counter:       4   Parms: SM      U1      
 Computing Diagnostic #    223  SIuice       Counter:       4   Parms: UU      M1      
           Vector  Mate for  SIuice       Diagnostic #    224  SIvice   exists 
 Computing Diagnostic #    224  SIvice       Counter:       4   Parms: VV      M1      
           Vector  Mate for  SIvice       Diagnostic #    223  SIuice   exists 
 Computing Diagnostic #    225  SItaux       Counter:       4   Parms: UU      U1      
           Vector  Mate for  SItaux       Diagnostic #    226  SItauy   exists 
 Computing Diagnostic #    226  SItauy       Counter:       4   Parms: VV      U1      
           Vector  Mate for  SItauy       Diagnostic #    225  SItaux   exists 
 Computing Diagnostic #    285  SIareaN      Counter:       4   Parms: SM      MX      
 Computing Diagnostic #    284  SIheffN      Counter:       4   Parms: SM      MX      
 Computing Diagnostic #    286  SIhsnowN     Counter:       4   Parms: SM      MX      
 Compute Stats, Diag. #    214  SIarea    vol(   0 ): 3.580E+14  Parms: SM      M1      
 Compute Stats, Diag. #    217  SIheff    vol(   0 ): 3.580E+14  Parms: SM      M1      
 Compute Stats, Diag. #    219  SIhsnow   vol(   0 ): 3.580E+14  Parms: SM      M1      
 Compute Stats, Diag. #     83  sIceLoad  vol(   0 ): 3.580E+14  Parms: SM      U1      
 Compute Stats, Diag. #    223  SIuice    vol(   0 ): 3.513E+14  Parms: UU      M1      
 Compute Stats, Diag. #    224  SIvice    vol(   0 ): 3.508E+14  Parms: VV      M1      
 Compute Stats, Diag. #    225  SItaux    vol(   0 ): 3.513E+14  Parms: UU      U1      
 Compute Stats, Diag. #    226  SItauy    vol(   0 ): 3.508E+14  Parms: VV      U1      
 cg2d: Sum(rhs),rhsMax =  -8.85166078667544E+00  2.91440709929411E-01
 Compute Stats, Diag. #    214  SIarea    vol(   0 ): 3.580E+14  Parms: SM      M1      
 Compute Stats, Diag. #    217  SIheff    vol(   0 ): 3.580E+14  Parms: SM      M1      
 Compute Stats, Diag. #    219  SIhsnow   vol(   0 ): 3.580E+14  Parms: SM      M1      
 Compute Stats, Diag. #     83  sIceLoad  vol(   0 ): 3.580E+14  Parms: SM      U1      
 Compute Stats, Diag. #    223  SIuice    vol(   0 ): 3.513E+14  Parms: UU      M1      
 Compute Stats, Diag. #    224  SIvice    vol(   0 ): 3.508E+14  Parms: VV      M1      
 Compute Stats, Diag. #    225  SItaux    vol(   0 ): 3.513E+14  Parms: UU      U1      
 Compute Stats, Diag. #    226  SItauy    vol(   0 ): 3.508E+14  Parms: VV      U1      
 cg2d: Sum(rhs),rhsMax =  -9.03868353130090E+00  2.91403400687383E-01
 Compute Stats, Diag. #    214  SIarea    vol(   0 ): 3.580E+14  Parms: SM      M1      
 Compute Stats, Diag. #    217  SIheff    vol(   0 ): 3.580E+14  Parms: SM      M1      
 Compute Stats, Diag. #    219  SIhsnow   vol(   0 ): 3.580E+14  Parms: SM      M1      
 Compute Stats, Diag. #     83  sIceLoad  vol(   0 ): 3.580E+14  Parms: SM      U1      
 Compute Stats, Diag. #    223  SIuice    vol(   0 ): 3.513E+14  Parms: UU      M1      
 Compute Stats, Diag. #    224  SIvice    vol(   0 ): 3.508E+14  Parms: VV      M1      
 Compute Stats, Diag. #    225  SItaux    vol(   0 ): 3.513E+14  Parms: UU      U1      
 Compute Stats, Diag. #    226  SItauy    vol(   0 ): 3.508E+14  Parms: VV      U1      
 cg2d: Sum(rhs),rhsMax =  -9.22626918624191E+00  2.91369571347800E-01
 Compute Stats, Diag. #    214  SIarea    vol(   0 ): 3.580E+14  Parms: SM      M1      
 Compute Stats, Diag. #    217  SIheff    vol(   0 ): 3.580E+14  Parms: SM      M1      
 Compute Stats, Diag. #    219  SIhsnow   vol(   0 ): 3.580E+14  Parms: SM      M1      
 Compute Stats, Diag. #     83  sIceLoad  vol(   0 ): 3.580E+14  Parms: SM      U1      
 Compute Stats, Diag. #    223  SIuice    vol(   0 ): 3.513E+14  Parms: UU      M1      
 Compute Stats, Diag. #    224  SIvice    vol(   0 ): 3.508E+14  Parms: VV      M1      
 Compute Stats, Diag. #    225  SItaux    vol(   0 ): 3.513E+14  Parms: UU      U1      
 Compute Stats, Diag. #    226  SItauy    vol(   0 ): 3.508E+14  Parms: VV      U1      
 cg2d: Sum(rhs),rhsMax =  -9.41798068893917E+00  2.91339315806197E-01
(PID.TID 0000.0001)      cg2d_init_res =   3.87524955958130E-02
(PID.TID 0000.0001)      cg2d_iters(min,last) =      -1      21
(PID.TID 0000.0001)      cg2d_last_res =   2.72766269303094E-05
(PID.TID 0000.0001) // =======================================================
(PID.TID 0000.0001) // Begin MONITOR dynamic field statistics
(PID.TID 0000.0001) // =======================================================
(PID.TID 0000.0001) %MON time_tsnumber                =                   752
(PID.TID 0000.0001) %MON time_secondsf                =   6.7680000000000E+05
(PID.TID 0000.0001) %MON dynstat_eta_max              =   1.0396611485568E+00
(PID.TID 0000.0001) %MON dynstat_eta_min              =  -1.8540883363678E+00
(PID.TID 0000.0001) %MON dynstat_eta_mean             =   2.9792080822574E-04
(PID.TID 0000.0001) %MON dynstat_eta_sd               =   6.3437444144168E-01
(PID.TID 0000.0001) %MON dynstat_eta_del2             =   5.2890003113248E-05
(PID.TID 0000.0001) %MON dynstat_uvel_max             =   7.2141921103715E-01
(PID.TID 0000.0001) %MON dynstat_uvel_min             =  -6.7955483183950E-01
(PID.TID 0000.0001) %MON dynstat_uvel_mean            =   1.3640765923499E-03
(PID.TID 0000.0001) %MON dynstat_uvel_sd              =   1.8527486219040E-02
(PID.TID 0000.0001) %MON dynstat_uvel_del2            =   7.1754411782360E-06
(PID.TID 0000.0001) %MON dynstat_vvel_max             =   5.1989466136200E-01
(PID.TID 0000.0001) %MON dynstat_vvel_min             =  -8.6737785175424E-01
(PID.TID 0000.0001) %MON dynstat_vvel_mean            =   1.1282286144506E-03
(PID.TID 0000.0001) %MON dynstat_vvel_sd              =   1.9385792001385E-02
(PID.TID 0000.0001) %MON dynstat_vvel_del2            =   7.2692303531357E-06
(PID.TID 0000.0001) %MON dynstat_wvel_max             =   3.5319364930757E-04
(PID.TID 0000.0001) %MON dynstat_wvel_min             =  -8.3552740651686E-04
(PID.TID 0000.0001) %MON dynstat_wvel_mean            =   3.2417258356820E-09
(PID.TID 0000.0001) %MON dynstat_wvel_sd              =   1.8537154084652E-05
(PID.TID 0000.0001) %MON dynstat_wvel_del2            =   1.3878935334391E-08
(PID.TID 0000.0001) %MON dynstat_theta_max            =   3.2097296530915E+01
(PID.TID 0000.0001) %MON dynstat_theta_min            =  -2.0399078774586E+00
(PID.TID 0000.0001) %MON dynstat_theta_mean           =   3.5902518666366E+00
(PID.TID 0000.0001) %MON dynstat_theta_sd             =   4.4365880213915E+00
(PID.TID 0000.0001) %MON dynstat_theta_del2           =   9.1891137619610E-05
(PID.TID 0000.0001) %MON dynstat_salt_max             =   4.0711551188958E+01
(PID.TID 0000.0001) %MON dynstat_salt_min             =   6.0182749094738E+00
(PID.TID 0000.0001) %MON dynstat_salt_mean            =   3.4725569102446E+01
(PID.TID 0000.0001) %MON dynstat_salt_sd              =   3.7706290650503E-01
(PID.TID 0000.0001) %MON dynstat_salt_del2            =   3.6056459028026E-05
(PID.TID 0000.0001) %MON dynstat_sst_max              =   3.2080208939685E+01
(PID.TID 0000.0001) %MON dynstat_sst_min              =  -1.8071116182836E+00
(PID.TID 0000.0001) %MON dynstat_sst_mean             =   1.8472888025586E+01
(PID.TID 0000.0001) %MON dynstat_sst_sd               =   1.0249341622905E+01
(PID.TID 0000.0001) %MON dynstat_sst_del2             =   7.9444356232504E-04
(PID.TID 0000.0001) %MON dynstat_sss_max              =   3.9102526630607E+01
(PID.TID 0000.0001) %MON dynstat_sss_min              =   6.0182749094738E+00
(PID.TID 0000.0001) %MON dynstat_sss_mean             =   3.4700024664051E+01
(PID.TID 0000.0001) %MON dynstat_sss_sd               =   1.1717078771766E+00
(PID.TID 0000.0001) %MON dynstat_sss_del2             =   1.1193022900196E-03
(PID.TID 0000.0001) %MON forcing_qnet_max             =   7.1860363769531E+02
(PID.TID 0000.0001) %MON forcing_qnet_min             =  -8.2000035910576E+02
(PID.TID 0000.0001) %MON forcing_qnet_mean            =  -3.0836988407192E+00
(PID.TID 0000.0001) %MON forcing_qnet_sd              =   1.9569163214839E+02
(PID.TID 0000.0001) %MON forcing_qnet_del2            =   3.1213990568173E-01
(PID.TID 0000.0001) %MON forcing_qsw_max              =   0.0000000000000E+00
(PID.TID 0000.0001) %MON forcing_qsw_min              =  -1.0750177411896E+02
(PID.TID 0000.0001) %MON forcing_qsw_mean             =  -1.8554192407413E+01
(PID.TID 0000.0001) %MON forcing_qsw_sd               =   2.8155512654814E+01
(PID.TID 0000.0001) %MON forcing_qsw_del2             =   2.1209133771906E-02
(PID.TID 0000.0001) %MON forcing_empmr_max            =   1.0205644648522E-03
(PID.TID 0000.0001) %MON forcing_empmr_min            =  -1.0545632988214E-01
(PID.TID 0000.0001) %MON forcing_empmr_mean           =  -6.9336845363475E-06
(PID.TID 0000.0001) %MON forcing_empmr_sd             =   4.1367603930327E-04
(PID.TID 0000.0001) %MON forcing_empmr_del2           =   4.3491163802758E-06
(PID.TID 0000.0001) %MON forcing_fu_max               =   6.7756086587906E-01
(PID.TID 0000.0001) %MON forcing_fu_min               =  -8.3203655481339E-01
(PID.TID 0000.0001) %MON forcing_fu_mean              =   3.0138312038557E-03
(PID.TID 0000.0001) %MON forcing_fu_sd                =   9.8208807673512E-02
(PID.TID 0000.0001) %MON forcing_fu_del2              =   1.2671439042715E-04
(PID.TID 0000.0001) %MON forcing_fv_max               =   9.3466350436211E-01
(PID.TID 0000.0001) %MON forcing_fv_min               =  -1.0625994801521E+00
(PID.TID 0000.0001) %MON forcing_fv_mean              =  -1.0729051763671E-02
(PID.TID 0000.0001) %MON forcing_fv_sd                =   1.0454896358489E-01
(PID.TID 0000.0001) %MON forcing_fv_del2              =   1.2548612179574E-04
(PID.TID 0000.0001) %MON trAdv_CFL_u_max              =   1.0185470543294E-02
(PID.TID 0000.0001) %MON trAdv_CFL_v_max              =   1.2385601893075E-02
(PID.TID 0000.0001) %MON trAdv_CFL_w_max              =   2.0347326212093E-02
(PID.TID 0000.0001) %MON advcfl_uvel_max              =   7.3061535364851E-03
(PID.TID 0000.0001) %MON advcfl_vvel_max              =   1.0576675209632E-02
(PID.TID 0000.0001) %MON advcfl_wvel_max              =   2.5506353900552E-02
(PID.TID 0000.0001) %MON advcfl_W_hf_max              =   2.5591458065058E-02
(PID.TID 0000.0001) %MON pe_b_mean                    =   5.2935826027286E-04
(PID.TID 0000.0001) %MON ke_max                       =   3.8643034440829E-01
(PID.TID 0000.0001) %MON ke_mean                      =   3.4824528250810E-04
(PID.TID 0000.0001) %MON ke_vol                       =   1.3349979814279E+18
(PID.TID 0000.0001) %MON vort_r_min                   =  -1.0655802366629E-05
(PID.TID 0000.0001) %MON vort_r_max                   =   1.8589984733446E-05
(PID.TID 0000.0001) %MON vort_a_mean                  =  -1.9727864647440E-05
(PID.TID 0000.0001) %MON vort_a_sd                    =   7.4542991647404E-05
(PID.TID 0000.0001) %MON vort_p_mean                  =  -2.1760532127555E-05
(PID.TID 0000.0001) %MON vort_p_sd                    =   9.7245842445586E-05
(PID.TID 0000.0001) %MON surfExpan_theta_mean         =  -3.7031882487262E-08
(PID.TID 0000.0001) %MON surfExpan_salt_mean          =   3.2278098250643E-08
(PID.TID 0000.0001) // =======================================================
(PID.TID 0000.0001) // End MONITOR dynamic field statistics
(PID.TID 0000.0001) // =======================================================
(PID.TID 0000.0001) // =======================================================
(PID.TID 0000.0001) // Begin MONITOR SEAICE statistics
(PID.TID 0000.0001) // =======================================================
(PID.TID 0000.0001) %MON seaice_tsnumber              =                   752
(PID.TID 0000.0001) %MON seaice_time_sec              =   6.7680000000000E+05
(PID.TID 0000.0001) %MON seaice_uice_max              =   4.0000000000000E-01
(PID.TID 0000.0001) %MON seaice_uice_min              =  -4.0000000000000E-01
(PID.TID 0000.0001) %MON seaice_uice_mean             =  -8.3054598624025E-03
(PID.TID 0000.0001) %MON seaice_uice_sd               =   1.9802383574176E-01
(PID.TID 0000.0001) %MON seaice_uice_del2             =   2.2931571122150E-04
(PID.TID 0000.0001) %MON seaice_vice_max              =   4.0000000000000E-01
(PID.TID 0000.0001) %MON seaice_vice_min              =  -4.0000000000000E-01
(PID.TID 0000.0001) %MON seaice_vice_mean             =  -2.1960776359499E-02
(PID.TID 0000.0001) %MON seaice_vice_sd               =   2.1302038025672E-01
(PID.TID 0000.0001) %MON seaice_vice_del2             =   2.3932563818061E-04
(PID.TID 0000.0001) %MON seaice_area_max              =   1.0000000000000E+00
(PID.TID 0000.0001) %MON seaice_area_min              =   0.0000000000000E+00
(PID.TID 0000.0001) %MON seaice_area_mean             =   6.5861971453291E-02
(PID.TID 0000.0001) %MON seaice_area_sd               =   2.2981042943729E-01
(PID.TID 0000.0001) %MON seaice_area_del2             =   3.9251642453161E-04
(PID.TID 0000.0001) %MON seaice_heff_max              =   2.5001344985445E+01
(PID.TID 0000.0001) %MON seaice_heff_min              =   0.0000000000000E+00
(PID.TID 0000.0001) %MON seaice_heff_mean             =   2.1263967693099E-01
(PID.TID 0000.0001) %MON seaice_heff_sd               =   1.0665842950987E+00
(PID.TID 0000.0001) %MON seaice_heff_del2             =   3.8421211853552E-03
(PID.TID 0000.0001) %MON seaice_hsnow_max             =   8.2579027572647E+00
(PID.TID 0000.0001) %MON seaice_hsnow_min             =   0.0000000000000E+00
(PID.TID 0000.0001) %MON seaice_hsnow_mean            =   2.4045824674584E-02
(PID.TID 0000.0001) %MON seaice_hsnow_sd              =   1.5617781083567E-01
(PID.TID 0000.0001) %MON seaice_hsnow_del2            =   1.2395527941857E-03
(PID.TID 0000.0001) // =======================================================
(PID.TID 0000.0001) // End MONITOR SEAICE statistics
(PID.TID 0000.0001) // =======================================================
 Computing Diagnostic #     86  oceQnet      Counter:       4   Parms: SM      U1      
 Computing Diagnostic #     87  oceQsw       Counter:       4   Parms: SM      U1      
 Computing Diagnostic #     84  oceFWflx     Counter:       4   Parms: SM      U1      
 Computing Diagnostic #     85  oceSflux     Counter:       4   Parms: SM      U1      
 Computing Diagnostic #     80  oceTAUX      Counter:       4   Parms: UU      U1      
           Vector  Mate for  oceTAUX      Diagnostic #     81  oceTAUY  exists 
 Computing Diagnostic #     81  oceTAUY      Counter:       4   Parms: VV      U1      
           Vector  Mate for  oceTAUY      Diagnostic #     80  oceTAUX  exists 
 Computing Diagnostic #     26  THETA        Counter:       4   Parms: SMR     MR      
 Computing Diagnostic #     27  SALT         Counter:       4   Parms: SMR     MR      
 Computing Diagnostic #     30  UVEL         Counter:       4   Parms: UUR     MR      
           Vector  Mate for  UVEL         Diagnostic #     31  VVEL     exists 
 Computing Diagnostic #     31  VVEL         Counter:       4   Parms: VVR     MR      
           Vector  Mate for  VVEL         Diagnostic #     30  UVEL     exists 
 Computing Diagnostic #    214  SIarea       Counter:       4   Parms: SM      M1      
 Computing Diagnostic #    217  SIheff       Counter:       4   Parms: SM      M1      
 Computing Diagnostic #    219  SIhsnow      Counter:       4   Parms: SM      M1      
 Computing Diagnostic #     83  sIceLoad     Counter:       4   Parms: SM      U1      
 Computing Diagnostic #    223  SIuice       Counter:       4   Parms: UU      M1      
           Vector  Mate for  SIuice       Diagnostic #    224  SIvice   exists 
 Computing Diagnostic #    224  SIvice       Counter:       4   Parms: VV      M1      
           Vector  Mate for  SIvice       Diagnostic #    223  SIuice   exists 
 Computing Diagnostic #    225  SItaux       Counter:       4   Parms: UU      U1      
           Vector  Mate for  SItaux       Diagnostic #    226  SItauy   exists 
 Computing Diagnostic #    226  SItauy       Counter:       4   Parms: VV      U1      
           Vector  Mate for  SItauy       Diagnostic #    225  SItaux   exists 
 Computing Diagnostic #    285  SIareaN      Counter:       4   Parms: SM      MX      
 Computing Diagnostic #    284  SIheffN      Counter:       4   Parms: SM      MX      
 Computing Diagnostic #    286  SIhsnowN     Counter:       4   Parms: SM      MX      
 Compute Stats, Diag. #    214  SIarea    vol(   0 ): 3.580E+14  Parms: SM      M1      
 Compute Stats, Diag. #    217  SIheff    vol(   0 ): 3.580E+14  Parms: SM      M1      
 Compute Stats, Diag. #    219  SIhsnow   vol(   0 ): 3.580E+14  Parms: SM      M1      
 Compute Stats, Diag. #     83  sIceLoad  vol(   0 ): 3.580E+14  Parms: SM      U1      
 Compute Stats, Diag. #    223  SIuice    vol(   0 ): 3.513E+14  Parms: UU      M1      
 Compute Stats, Diag. #    224  SIvice    vol(   0 ): 3.508E+14  Parms: VV      M1      
 Compute Stats, Diag. #    225  SItaux    vol(   0 ): 3.513E+14  Parms: UU      U1      
 Compute Stats, Diag. #    226  SItauy    vol(   0 ): 3.508E+14  Parms: VV      U1      
 cg2d: Sum(rhs),rhsMax =  -9.59972665973646E+00  2.91311481807445E-01
 Compute Stats, Diag. #    214  SIarea    vol(   0 ): 3.580E+14  Parms: SM      M1      
 Compute Stats, Diag. #    217  SIheff    vol(   0 ): 3.580E+14  Parms: SM      M1      
 Compute Stats, Diag. #    219  SIhsnow   vol(   0 ): 3.580E+14  Parms: SM      M1      
 Compute Stats, Diag. #     83  sIceLoad  vol(   0 ): 3.580E+14  Parms: SM      U1      
 Compute Stats, Diag. #    223  SIuice    vol(   0 ): 3.513E+14  Parms: UU      M1      
 Compute Stats, Diag. #    224  SIvice    vol(   0 ): 3.508E+14  Parms: VV      M1      
 Compute Stats, Diag. #    225  SItaux    vol(   0 ): 3.513E+14  Parms: UU      U1      
 Compute Stats, Diag. #    226  SItauy    vol(   0 ): 3.508E+14  Parms: VV      U1      
 cg2d: Sum(rhs),rhsMax =  -9.77374153125314E+00  2.91286243158657E-01
 Compute Stats, Diag. #    214  SIarea    vol(   0 ): 3.580E+14  Parms: SM      M1      
 Compute Stats, Diag. #    217  SIheff    vol(   0 ): 3.580E+14  Parms: SM      M1      
 Compute Stats, Diag. #    219  SIhsnow   vol(   0 ): 3.580E+14  Parms: SM      M1      
 Compute Stats, Diag. #     83  sIceLoad  vol(   0 ): 3.580E+14  Parms: SM      U1      
 Compute Stats, Diag. #    223  SIuice    vol(   0 ): 3.513E+14  Parms: UU      M1      
 Compute Stats, Diag. #    224  SIvice    vol(   0 ): 3.508E+14  Parms: VV      M1      
 Compute Stats, Diag. #    225  SItaux    vol(   0 ): 3.513E+14  Parms: UU      U1      
 Compute Stats, Diag. #    226  SItauy    vol(   0 ): 3.508E+14  Parms: VV      U1      
 cg2d: Sum(rhs),rhsMax =  -9.95742703317804E+00  2.91263089336833E-01
 Compute Stats, Diag. #    214  SIarea    vol(   0 ): 3.580E+14  Parms: SM      M1      
 Compute Stats, Diag. #    217  SIheff    vol(   0 ): 3.580E+14  Parms: SM      M1      
 Compute Stats, Diag. #    219  SIhsnow   vol(   0 ): 3.580E+14  Parms: SM      M1      
 Compute Stats, Diag. #     83  sIceLoad  vol(   0 ): 3.580E+14  Parms: SM      U1      
 Compute Stats, Diag. #    223  SIuice    vol(   0 ): 3.513E+14  Parms: UU      M1      
 Compute Stats, Diag. #    224  SIvice    vol(   0 ): 3.508E+14  Parms: VV      M1      
 Compute Stats, Diag. #    225  SItaux    vol(   0 ): 3.513E+14  Parms: UU      U1      
 Compute Stats, Diag. #    226  SItauy    vol(   0 ): 3.508E+14  Parms: VV      U1      
 cg2d: Sum(rhs),rhsMax =  -1.01408796813263E+01  2.91241142952904E-01
 Computing Diagnostic #     86  oceQnet      Counter:       4   Parms: SM      U1      
 Computing Diagnostic #     87  oceQsw       Counter:       4   Parms: SM      U1      
 Computing Diagnostic #     84  oceFWflx     Counter:       4   Parms: SM      U1      
 Computing Diagnostic #     85  oceSflux     Counter:       4   Parms: SM      U1      
 Computing Diagnostic #     80  oceTAUX      Counter:       4   Parms: UU      U1      
           Vector  Mate for  oceTAUX      Diagnostic #     81  oceTAUY  exists 
 Computing Diagnostic #     81  oceTAUY      Counter:       4   Parms: VV      U1      
           Vector  Mate for  oceTAUY      Diagnostic #     80  oceTAUX  exists 
 Computing Diagnostic #     26  THETA        Counter:       4   Parms: SMR     MR      
 Computing Diagnostic #     27  SALT         Counter:       4   Parms: SMR     MR      
 Computing Diagnostic #     30  UVEL         Counter:       4   Parms: UUR     MR      
           Vector  Mate for  UVEL         Diagnostic #     31  VVEL     exists 
 Computing Diagnostic #     31  VVEL         Counter:       4   Parms: VVR     MR      
           Vector  Mate for  VVEL         Diagnostic #     30  UVEL     exists 
 Computing Diagnostic #    214  SIarea       Counter:       4   Parms: SM      M1      
 Computing Diagnostic #    217  SIheff       Counter:       4   Parms: SM      M1      
 Computing Diagnostic #    219  SIhsnow      Counter:       4   Parms: SM      M1      
 Computing Diagnostic #     83  sIceLoad     Counter:       4   Parms: SM      U1      
 Computing Diagnostic #    223  SIuice       Counter:       4   Parms: UU      M1      
           Vector  Mate for  SIuice       Diagnostic #    224  SIvice   exists 
 Computing Diagnostic #    224  SIvice       Counter:       4   Parms: VV      M1      
           Vector  Mate for  SIvice       Diagnostic #    223  SIuice   exists 
 Computing Diagnostic #    225  SItaux       Counter:       4   Parms: UU      U1      
           Vector  Mate for  SItaux       Diagnostic #    226  SItauy   exists 
 Computing Diagnostic #    226  SItauy       Counter:       4   Parms: VV      U1      
           Vector  Mate for  SItauy       Diagnostic #    225  SItaux   exists 
 Computing Diagnostic #    285  SIareaN      Counter:       4   Parms: SM      MX      
 Computing Diagnostic #    284  SIheffN      Counter:       4   Parms: SM      MX      
 Computing Diagnostic #    286  SIhsnowN     Counter:       4   Parms: SM      MX      
 Compute Stats, Diag. #    214  SIarea    vol(   0 ): 3.580E+14  Parms: SM      M1      
 Compute Stats, Diag. #    217  SIheff    vol(   0 ): 3.580E+14  Parms: SM      M1      
 Compute Stats, Diag. #    219  SIhsnow   vol(   0 ): 3.580E+14  Parms: SM      M1      
 Compute Stats, Diag. #     83  sIceLoad  vol(   0 ): 3.580E+14  Parms: SM      U1      
 Compute Stats, Diag. #    223  SIuice    vol(   0 ): 3.513E+14  Parms: UU      M1      
 Compute Stats, Diag. #    224  SIvice    vol(   0 ): 3.508E+14  Parms: VV      M1      
 Compute Stats, Diag. #    225  SItaux    vol(   0 ): 3.513E+14  Parms: UU      U1      
 Compute Stats, Diag. #    226  SItauy    vol(   0 ): 3.508E+14  Parms: VV      U1      
 cg2d: Sum(rhs),rhsMax =  -1.03169358378443E+01  2.91220095208850E-01
 Compute Stats, Diag. #    214  SIarea    vol(   0 ): 3.580E+14  Parms: SM      M1      
 Compute Stats, Diag. #    217  SIheff    vol(   0 ): 3.580E+14  Parms: SM      M1      
 Compute Stats, Diag. #    219  SIhsnow   vol(   0 ): 3.580E+14  Parms: SM      M1      
 Compute Stats, Diag. #     83  sIceLoad  vol(   0 ): 3.580E+14  Parms: SM      U1      
 Compute Stats, Diag. #    223  SIuice    vol(   0 ): 3.513E+14  Parms: UU      M1      
 Compute Stats, Diag. #    224  SIvice    vol(   0 ): 3.508E+14  Parms: VV      M1      
 Compute Stats, Diag. #    225  SItaux    vol(   0 ): 3.513E+14  Parms: UU      U1      
 Compute Stats, Diag. #    226  SItauy    vol(   0 ): 3.508E+14  Parms: VV      U1      
 cg2d: Sum(rhs),rhsMax =  -1.04976887279947E+01  2.91199278560776E-01
 Compute Stats, Diag. #    214  SIarea    vol(   0 ): 3.580E+14  Parms: SM      M1      
 Compute Stats, Diag. #    217  SIheff    vol(   0 ): 3.580E+14  Parms: SM      M1      
 Compute Stats, Diag. #    219  SIhsnow   vol(   0 ): 3.580E+14  Parms: SM      M1      
 Compute Stats, Diag. #     83  sIceLoad  vol(   0 ): 3.580E+14  Parms: SM      U1      
 Compute Stats, Diag. #    223  SIuice    vol(   0 ): 3.513E+14  Parms: UU      M1      
 Compute Stats, Diag. #    224  SIvice    vol(   0 ): 3.508E+14  Parms: VV      M1      
 Compute Stats, Diag. #    225  SItaux    vol(   0 ): 3.513E+14  Parms: UU      U1      
 Compute Stats, Diag. #    226  SItauy    vol(   0 ): 3.508E+14  Parms: VV      U1      
 cg2d: Sum(rhs),rhsMax =  -1.06768292500403E+01  2.91178204603168E-01
 Compute Stats, Diag. #    214  SIarea    vol(   0 ): 3.580E+14  Parms: SM      M1      
 Compute Stats, Diag. #    217  SIheff    vol(   0 ): 3.580E+14  Parms: SM      M1      
 Compute Stats, Diag. #    219  SIhsnow   vol(   0 ): 3.580E+14  Parms: SM      M1      
 Compute Stats, Diag. #     83  sIceLoad  vol(   0 ): 3.580E+14  Parms: SM      U1      
 Compute Stats, Diag. #    223  SIuice    vol(   0 ): 3.513E+14  Parms: UU      M1      
 Compute Stats, Diag. #    224  SIvice    vol(   0 ): 3.508E+14  Parms: VV      M1      
 Compute Stats, Diag. #    225  SItaux    vol(   0 ): 3.513E+14  Parms: UU      U1      
 Compute Stats, Diag. #    226  SItauy    vol(   0 ): 3.508E+14  Parms: VV      U1      
 cg2d: Sum(rhs),rhsMax =  -1.08369635796909E+01  2.91156340382666E-01
(PID.TID 0000.0001)      cg2d_init_res =   3.95326806801465E-02
(PID.TID 0000.0001)      cg2d_iters(min,last) =      -1      23
(PID.TID 0000.0001)      cg2d_last_res =   2.22569750906315E-05
(PID.TID 0000.0001) // =======================================================
(PID.TID 0000.0001) // Begin MONITOR dynamic field statistics
(PID.TID 0000.0001) // =======================================================
(PID.TID 0000.0001) %MON time_tsnumber                =                   760
(PID.TID 0000.0001) %MON time_secondsf                =   6.8400000000000E+05
(PID.TID 0000.0001) %MON dynstat_eta_max              =   1.0378272602587E+00
(PID.TID 0000.0001) %MON dynstat_eta_min              =  -1.8535174611786E+00
(PID.TID 0000.0001) %MON dynstat_eta_mean             =   3.4280776899074E-04
(PID.TID 0000.0001) %MON dynstat_eta_sd               =   6.3416868414771E-01
(PID.TID 0000.0001) %MON dynstat_eta_del2             =   5.2623129821020E-05
(PID.TID 0000.0001) %MON dynstat_uvel_max             =   7.1802277929845E-01
(PID.TID 0000.0001) %MON dynstat_uvel_min             =  -6.8345328212901E-01
(PID.TID 0000.0001) %MON dynstat_uvel_mean            =   1.3597440961487E-03
(PID.TID 0000.0001) %MON dynstat_uvel_sd              =   1.8505885657891E-02
(PID.TID 0000.0001) %MON dynstat_uvel_del2            =   7.1620958119786E-06
(PID.TID 0000.0001) %MON dynstat_vvel_max             =   5.4596804476192E-01
(PID.TID 0000.0001) %MON dynstat_vvel_min             =  -8.6454409769422E-01
(PID.TID 0000.0001) %MON dynstat_vvel_mean            =   1.1217240315213E-03
(PID.TID 0000.0001) %MON dynstat_vvel_sd              =   1.9373529033487E-02
(PID.TID 0000.0001) %MON dynstat_vvel_del2            =   7.2525325169186E-06
(PID.TID 0000.0001) %MON dynstat_wvel_max             =   3.5113479864918E-04
(PID.TID 0000.0001) %MON dynstat_wvel_min             =  -8.3222965570565E-04
(PID.TID 0000.0001) %MON dynstat_wvel_mean            =   3.3428437737846E-09
(PID.TID 0000.0001) %MON dynstat_wvel_sd              =   1.8211086279567E-05
(PID.TID 0000.0001) %MON dynstat_wvel_del2            =   1.3767593172865E-08
(PID.TID 0000.0001) %MON dynstat_theta_max            =   3.2069915813967E+01
(PID.TID 0000.0001) %MON dynstat_theta_min            =  -2.0398891167263E+00
(PID.TID 0000.0001) %MON dynstat_theta_mean           =   3.5902563821697E+00
(PID.TID 0000.0001) %MON dynstat_theta_sd             =   4.4366213958916E+00
(PID.TID 0000.0001) %MON dynstat_theta_del2           =   9.1808632685655E-05
(PID.TID 0000.0001) %MON dynstat_salt_max             =   4.0711550785169E+01
(PID.TID 0000.0001) %MON dynstat_salt_min             =   5.6252238821034E+00
(PID.TID 0000.0001) %MON dynstat_salt_mean            =   3.4725568709831E+01
(PID.TID 0000.0001) %MON dynstat_salt_sd              =   3.7706529468224E-01
(PID.TID 0000.0001) %MON dynstat_salt_del2            =   3.6033092383422E-05
(PID.TID 0000.0001) %MON dynstat_sst_max              =   3.2069900292519E+01
(PID.TID 0000.0001) %MON dynstat_sst_min              =  -1.8075618869977E+00
(PID.TID 0000.0001) %MON dynstat_sst_mean             =   1.8474896193333E+01
(PID.TID 0000.0001) %MON dynstat_sst_sd               =   1.0251613312214E+01
(PID.TID 0000.0001) %MON dynstat_sst_del2             =   7.9349348653936E-04
(PID.TID 0000.0001) %MON dynstat_sss_max              =   3.9102345456125E+01
(PID.TID 0000.0001) %MON dynstat_sss_min              =   5.6252238821034E+00
(PID.TID 0000.0001) %MON dynstat_sss_mean             =   3.4700017980902E+01
(PID.TID 0000.0001) %MON dynstat_sss_sd               =   1.1721713031697E+00
(PID.TID 0000.0001) %MON dynstat_sss_del2             =   1.1172212370462E-03
(PID.TID 0000.0001) %MON forcing_qnet_max             =   1.1117380371094E+03
(PID.TID 0000.0001) %MON forcing_qnet_min             =  -7.6421719461196E+02
(PID.TID 0000.0001) %MON forcing_qnet_mean            =  -1.4656387438255E+01
(PID.TID 0000.0001) %MON forcing_qnet_sd              =   1.9391298043129E+02
(PID.TID 0000.0001) %MON forcing_qnet_del2            =   3.3157553937151E-01
(PID.TID 0000.0001) %MON forcing_qsw_max              =   0.0000000000000E+00
(PID.TID 0000.0001) %MON forcing_qsw_min              =  -1.0721902092195E+02
(PID.TID 0000.0001) %MON forcing_qsw_mean             =  -2.0007925010709E+01
(PID.TID 0000.0001) %MON forcing_qsw_sd               =   2.9065986101798E+01
(PID.TID 0000.0001) %MON forcing_qsw_del2             =   2.0821788384354E-02
(PID.TID 0000.0001) %MON forcing_empmr_max            =   1.3292101211846E-03
(PID.TID 0000.0001) %MON forcing_empmr_min            =  -1.0938147455454E-01
(PID.TID 0000.0001) %MON forcing_empmr_mean           =  -5.7916239222777E-06
(PID.TID 0000.0001) %MON forcing_empmr_sd             =   4.3282831314631E-04
(PID.TID 0000.0001) %MON forcing_empmr_del2           =   4.5710803169334E-06
(PID.TID 0000.0001) %MON forcing_fu_max               =   7.8367650508881E-01
(PID.TID 0000.0001) %MON forcing_fu_min               =  -8.6065793037415E-01
(PID.TID 0000.0001) %MON forcing_fu_mean              =   3.0256543428907E-03
(PID.TID 0000.0001) %MON forcing_fu_sd                =   1.0021342567965E-01
(PID.TID 0000.0001) %MON forcing_fu_del2              =   1.2924916197457E-04
(PID.TID 0000.0001) %MON forcing_fv_max               =   9.5921859145164E-01
(PID.TID 0000.0001) %MON forcing_fv_min               =  -1.1530920863152E+00
(PID.TID 0000.0001) %MON forcing_fv_mean              =  -1.1325354661801E-02
(PID.TID 0000.0001) %MON forcing_fv_sd                =   1.0488998429018E-01
(PID.TID 0000.0001) %MON forcing_fv_del2              =   1.2591760013395E-04
(PID.TID 0000.0001) %MON trAdv_CFL_u_max              =   1.0166439810197E-02
(PID.TID 0000.0001) %MON trAdv_CFL_v_max              =   1.2317172695255E-02
(PID.TID 0000.0001) %MON trAdv_CFL_w_max              =   2.0164953424084E-02
(PID.TID 0000.0001) %MON advcfl_uvel_max              =   7.6708749147240E-03
(PID.TID 0000.0001) %MON advcfl_vvel_max              =   1.0618188765024E-02
(PID.TID 0000.0001) %MON advcfl_wvel_max              =   2.5603893246901E-02
(PID.TID 0000.0001) %MON advcfl_W_hf_max              =   2.5688677626756E-02
(PID.TID 0000.0001) %MON pe_b_mean                    =   5.2901495608719E-04
(PID.TID 0000.0001) %MON ke_max                       =   3.8501696983957E-01
(PID.TID 0000.0001) %MON ke_mean                      =   3.4761763920557E-04
(PID.TID 0000.0001) %MON ke_vol                       =   1.3349979978557E+18
(PID.TID 0000.0001) %MON vort_r_min                   =  -1.1799247510163E-05
(PID.TID 0000.0001) %MON vort_r_max                   =   1.8061627122010E-05
(PID.TID 0000.0001) %MON vort_a_mean                  =  -1.9727864647440E-05
(PID.TID 0000.0001) %MON vort_a_sd                    =   7.4542992222070E-05
(PID.TID 0000.0001) %MON vort_p_mean                  =  -2.1760531903945E-05
(PID.TID 0000.0001) %MON vort_p_sd                    =   9.7245895418438E-05
(PID.TID 0000.0001) %MON surfExpan_theta_mean         =  -1.1819240373581E-09
(PID.TID 0000.0001) %MON surfExpan_salt_mean          =   4.2448262593782E-08
(PID.TID 0000.0001) // =======================================================
(PID.TID 0000.0001) // End MONITOR dynamic field statistics
(PID.TID 0000.0001) // =======================================================
(PID.TID 0000.0001) // =======================================================
(PID.TID 0000.0001) // Begin MONITOR SEAICE statistics
(PID.TID 0000.0001) // =======================================================
(PID.TID 0000.0001) %MON seaice_tsnumber              =                   760
(PID.TID 0000.0001) %MON seaice_time_sec              =   6.8400000000000E+05
(PID.TID 0000.0001) %MON seaice_uice_max              =   4.0000000000000E-01
(PID.TID 0000.0001) %MON seaice_uice_min              =  -4.0000000000000E-01
(PID.TID 0000.0001) %MON seaice_uice_mean             =  -8.3054598624025E-03
(PID.TID 0000.0001) %MON seaice_uice_sd               =   1.9802383574176E-01
(PID.TID 0000.0001) %MON seaice_uice_del2             =   2.2931571122150E-04
(PID.TID 0000.0001) %MON seaice_vice_max              =   4.0000000000000E-01
(PID.TID 0000.0001) %MON seaice_vice_min              =  -4.0000000000000E-01
(PID.TID 0000.0001) %MON seaice_vice_mean             =  -2.1960776359499E-02
(PID.TID 0000.0001) %MON seaice_vice_sd               =   2.1302038025672E-01
(PID.TID 0000.0001) %MON seaice_vice_del2             =   2.3932563818061E-04
(PID.TID 0000.0001) %MON seaice_area_max              =   1.0000000000000E+00
(PID.TID 0000.0001) %MON seaice_area_min              =   0.0000000000000E+00
(PID.TID 0000.0001) %MON seaice_area_mean             =   6.5832190535970E-02
(PID.TID 0000.0001) %MON seaice_area_sd               =   2.2975831915792E-01
(PID.TID 0000.0001) %MON seaice_area_del2             =   3.9202884856677E-04
(PID.TID 0000.0001) %MON seaice_heff_max              =   2.4999440345448E+01
(PID.TID 0000.0001) %MON seaice_heff_min              =   0.0000000000000E+00
(PID.TID 0000.0001) %MON seaice_heff_mean             =   2.1260711773114E-01
(PID.TID 0000.0001) %MON seaice_heff_sd               =   1.0665538162064E+00
(PID.TID 0000.0001) %MON seaice_heff_del2             =   3.8414465864292E-03
(PID.TID 0000.0001) %MON seaice_hsnow_max             =   8.2572760975454E+00
(PID.TID 0000.0001) %MON seaice_hsnow_min             =   0.0000000000000E+00
(PID.TID 0000.0001) %MON seaice_hsnow_mean            =   2.4035307719035E-02
(PID.TID 0000.0001) %MON seaice_hsnow_sd              =   1.5616008839617E-01
(PID.TID 0000.0001) %MON seaice_hsnow_del2            =   1.2394421619209E-03
(PID.TID 0000.0001) // =======================================================
(PID.TID 0000.0001) // End MONITOR SEAICE statistics
(PID.TID 0000.0001) // =======================================================
 Computing Diagnostic #     86  oceQnet      Counter:       4   Parms: SM      U1      
 Computing Diagnostic #     87  oceQsw       Counter:       4   Parms: SM      U1      
 Computing Diagnostic #     84  oceFWflx     Counter:       4   Parms: SM      U1      
 Computing Diagnostic #     85  oceSflux     Counter:       4   Parms: SM      U1      
 Computing Diagnostic #     80  oceTAUX      Counter:       4   Parms: UU      U1      
           Vector  Mate for  oceTAUX      Diagnostic #     81  oceTAUY  exists 
 Computing Diagnostic #     81  oceTAUY      Counter:       4   Parms: VV      U1      
           Vector  Mate for  oceTAUY      Diagnostic #     80  oceTAUX  exists 
 Computing Diagnostic #     26  THETA        Counter:       4   Parms: SMR     MR      
 Computing Diagnostic #     27  SALT         Counter:       4   Parms: SMR     MR      
 Computing Diagnostic #     30  UVEL         Counter:       4   Parms: UUR     MR      
           Vector  Mate for  UVEL         Diagnostic #     31  VVEL     exists 
 Computing Diagnostic #     31  VVEL         Counter:       4   Parms: VVR     MR      
           Vector  Mate for  VVEL         Diagnostic #     30  UVEL     exists 
 Computing Diagnostic #    214  SIarea       Counter:       4   Parms: SM      M1      
 Computing Diagnostic #    217  SIheff       Counter:       4   Parms: SM      M1      
 Computing Diagnostic #    219  SIhsnow      Counter:       4   Parms: SM      M1      
 Computing Diagnostic #     83  sIceLoad     Counter:       4   Parms: SM      U1      
 Computing Diagnostic #    223  SIuice       Counter:       4   Parms: UU      M1      
           Vector  Mate for  SIuice       Diagnostic #    224  SIvice   exists 
 Computing Diagnostic #    224  SIvice       Counter:       4   Parms: VV      M1      
           Vector  Mate for  SIvice       Diagnostic #    223  SIuice   exists 
 Computing Diagnostic #    225  SItaux       Counter:       4   Parms: UU      U1      
           Vector  Mate for  SItaux       Diagnostic #    226  SItauy   exists 
 Computing Diagnostic #    226  SItauy       Counter:       4   Parms: VV      U1      
           Vector  Mate for  SItauy       Diagnostic #    225  SItaux   exists 
 Computing Diagnostic #    285  SIareaN      Counter:       4   Parms: SM      MX      
 Computing Diagnostic #    284  SIheffN      Counter:       4   Parms: SM      MX      
 Computing Diagnostic #    286  SIhsnowN     Counter:       4   Parms: SM      MX      
 Compute Stats, Diag. #    214  SIarea    vol(   0 ): 3.580E+14  Parms: SM      M1      
 Compute Stats, Diag. #    217  SIheff    vol(   0 ): 3.580E+14  Parms: SM      M1      
 Compute Stats, Diag. #    219  SIhsnow   vol(   0 ): 3.580E+14  Parms: SM      M1      
 Compute Stats, Diag. #     83  sIceLoad  vol(   0 ): 3.580E+14  Parms: SM      U1      
 Compute Stats, Diag. #    223  SIuice    vol(   0 ): 3.513E+14  Parms: UU      M1      
 Compute Stats, Diag. #    224  SIvice    vol(   0 ): 3.508E+14  Parms: VV      M1      
 Compute Stats, Diag. #    225  SItaux    vol(   0 ): 3.513E+14  Parms: UU      U1      
 Compute Stats, Diag. #    226  SItauy    vol(   0 ): 3.508E+14  Parms: VV      U1      
 cg2d: Sum(rhs),rhsMax =  -1.09917153310441E+01  2.91133115135640E-01
 Compute Stats, Diag. #    214  SIarea    vol(   0 ): 3.580E+14  Parms: SM      M1      
 Compute Stats, Diag. #    217  SIheff    vol(   0 ): 3.580E+14  Parms: SM      M1      
 Compute Stats, Diag. #    219  SIhsnow   vol(   0 ): 3.580E+14  Parms: SM      M1      
 Compute Stats, Diag. #     83  sIceLoad  vol(   0 ): 3.580E+14  Parms: SM      U1      
 Compute Stats, Diag. #    223  SIuice    vol(   0 ): 3.513E+14  Parms: UU      M1      
 Compute Stats, Diag. #    224  SIvice    vol(   0 ): 3.508E+14  Parms: VV      M1      
 Compute Stats, Diag. #    225  SItaux    vol(   0 ): 3.513E+14  Parms: UU      U1      
 Compute Stats, Diag. #    226  SItauy    vol(   0 ): 3.508E+14  Parms: VV      U1      
 cg2d: Sum(rhs),rhsMax =  -1.11491294917357E+01  2.91108080642530E-01
 Compute Stats, Diag. #    214  SIarea    vol(   0 ): 3.580E+14  Parms: SM      M1      
 Compute Stats, Diag. #    217  SIheff    vol(   0 ): 3.580E+14  Parms: SM      M1      
 Compute Stats, Diag. #    219  SIhsnow   vol(   0 ): 3.580E+14  Parms: SM      M1      
 Compute Stats, Diag. #     83  sIceLoad  vol(   0 ): 3.580E+14  Parms: SM      U1      
 Compute Stats, Diag. #    223  SIuice    vol(   0 ): 3.513E+14  Parms: UU      M1      
 Compute Stats, Diag. #    224  SIvice    vol(   0 ): 3.508E+14  Parms: VV      M1      
 Compute Stats, Diag. #    225  SItaux    vol(   0 ): 3.513E+14  Parms: UU      U1      
 Compute Stats, Diag. #    226  SItauy    vol(   0 ): 3.508E+14  Parms: VV      U1      
 cg2d: Sum(rhs),rhsMax =  -1.13002777472084E+01  2.91080959407574E-01
 Compute Stats, Diag. #    214  SIarea    vol(   0 ): 3.580E+14  Parms: SM      M1      
 Compute Stats, Diag. #    217  SIheff    vol(   0 ): 3.580E+14  Parms: SM      M1      
 Compute Stats, Diag. #    219  SIhsnow   vol(   0 ): 3.580E+14  Parms: SM      M1      
 Compute Stats, Diag. #     83  sIceLoad  vol(   0 ): 3.580E+14  Parms: SM      U1      
 Compute Stats, Diag. #    223  SIuice    vol(   0 ): 3.513E+14  Parms: UU      M1      
 Compute Stats, Diag. #    224  SIvice    vol(   0 ): 3.508E+14  Parms: VV      M1      
 Compute Stats, Diag. #    225  SItaux    vol(   0 ): 3.513E+14  Parms: UU      U1      
 Compute Stats, Diag. #    226  SItauy    vol(   0 ): 3.508E+14  Parms: VV      U1      
 cg2d: Sum(rhs),rhsMax =  -1.14482186387147E+01  2.91051112070820E-01
 Computing Diagnostic #     86  oceQnet      Counter:       4   Parms: SM      U1      
 Computing Diagnostic #     87  oceQsw       Counter:       4   Parms: SM      U1      
 Computing Diagnostic #     84  oceFWflx     Counter:       4   Parms: SM      U1      
 Computing Diagnostic #     85  oceSflux     Counter:       4   Parms: SM      U1      
 Computing Diagnostic #     80  oceTAUX      Counter:       4   Parms: UU      U1      
           Vector  Mate for  oceTAUX      Diagnostic #     81  oceTAUY  exists 
 Computing Diagnostic #     81  oceTAUY      Counter:       4   Parms: VV      U1      
           Vector  Mate for  oceTAUY      Diagnostic #     80  oceTAUX  exists 
 Computing Diagnostic #     26  THETA        Counter:       4   Parms: SMR     MR      
 Computing Diagnostic #     27  SALT         Counter:       4   Parms: SMR     MR      
 Computing Diagnostic #     30  UVEL         Counter:       4   Parms: UUR     MR      
           Vector  Mate for  UVEL         Diagnostic #     31  VVEL     exists 
 Computing Diagnostic #     31  VVEL         Counter:       4   Parms: VVR     MR      
           Vector  Mate for  VVEL         Diagnostic #     30  UVEL     exists 
 Computing Diagnostic #    214  SIarea       Counter:       4   Parms: SM      M1      
 Computing Diagnostic #    217  SIheff       Counter:       4   Parms: SM      M1      
 Computing Diagnostic #    219  SIhsnow      Counter:       4   Parms: SM      M1      
 Computing Diagnostic #     83  sIceLoad     Counter:       4   Parms: SM      U1      
 Computing Diagnostic #    223  SIuice       Counter:       4   Parms: UU      M1      
           Vector  Mate for  SIuice       Diagnostic #    224  SIvice   exists 
 Computing Diagnostic #    224  SIvice       Counter:       4   Parms: VV      M1      
           Vector  Mate for  SIvice       Diagnostic #    223  SIuice   exists 
 Computing Diagnostic #    225  SItaux       Counter:       4   Parms: UU      U1      
           Vector  Mate for  SItaux       Diagnostic #    226  SItauy   exists 
 Computing Diagnostic #    226  SItauy       Counter:       4   Parms: VV      U1      
           Vector  Mate for  SItauy       Diagnostic #    225  SItaux   exists 
 Computing Diagnostic #    285  SIareaN      Counter:       4   Parms: SM      MX      
 Computing Diagnostic #    284  SIheffN      Counter:       4   Parms: SM      MX      
 Computing Diagnostic #    286  SIhsnowN     Counter:       4   Parms: SM      MX      
 Compute Stats, Diag. #    214  SIarea    vol(   0 ): 3.580E+14  Parms: SM      M1      
 Compute Stats, Diag. #    217  SIheff    vol(   0 ): 3.580E+14  Parms: SM      M1      
 Compute Stats, Diag. #    219  SIhsnow   vol(   0 ): 3.580E+14  Parms: SM      M1      
 Compute Stats, Diag. #     83  sIceLoad  vol(   0 ): 3.580E+14  Parms: SM      U1      
 Compute Stats, Diag. #    223  SIuice    vol(   0 ): 3.513E+14  Parms: UU      M1      
 Compute Stats, Diag. #    224  SIvice    vol(   0 ): 3.508E+14  Parms: VV      M1      
 Compute Stats, Diag. #    225  SItaux    vol(   0 ): 3.513E+14  Parms: UU      U1      
 Compute Stats, Diag. #    226  SItauy    vol(   0 ): 3.508E+14  Parms: VV      U1      
 cg2d: Sum(rhs),rhsMax =  -1.15798368588287E+01  2.91018310369902E-01
 Compute Stats, Diag. #    214  SIarea    vol(   0 ): 3.580E+14  Parms: SM      M1      
 Compute Stats, Diag. #    217  SIheff    vol(   0 ): 3.580E+14  Parms: SM      M1      
 Compute Stats, Diag. #    219  SIhsnow   vol(   0 ): 3.580E+14  Parms: SM      M1      
 Compute Stats, Diag. #     83  sIceLoad  vol(   0 ): 3.580E+14  Parms: SM      U1      
 Compute Stats, Diag. #    223  SIuice    vol(   0 ): 3.513E+14  Parms: UU      M1      
 Compute Stats, Diag. #    224  SIvice    vol(   0 ): 3.508E+14  Parms: VV      M1      
 Compute Stats, Diag. #    225  SItaux    vol(   0 ): 3.513E+14  Parms: UU      U1      
 Compute Stats, Diag. #    226  SItauy    vol(   0 ): 3.508E+14  Parms: VV      U1      
 cg2d: Sum(rhs),rhsMax =  -1.17079758265857E+01  2.90982202968188E-01
 Compute Stats, Diag. #    214  SIarea    vol(   0 ): 3.580E+14  Parms: SM      M1      
 Compute Stats, Diag. #    217  SIheff    vol(   0 ): 3.580E+14  Parms: SM      M1      
 Compute Stats, Diag. #    219  SIhsnow   vol(   0 ): 3.580E+14  Parms: SM      M1      
 Compute Stats, Diag. #     83  sIceLoad  vol(   0 ): 3.580E+14  Parms: SM      U1      
 Compute Stats, Diag. #    223  SIuice    vol(   0 ): 3.513E+14  Parms: UU      M1      
 Compute Stats, Diag. #    224  SIvice    vol(   0 ): 3.508E+14  Parms: VV      M1      
 Compute Stats, Diag. #    225  SItaux    vol(   0 ): 3.513E+14  Parms: UU      U1      
 Compute Stats, Diag. #    226  SItauy    vol(   0 ): 3.508E+14  Parms: VV      U1      
 cg2d: Sum(rhs),rhsMax =  -1.18264676389727E+01  2.90943002233122E-01
 Compute Stats, Diag. #    214  SIarea    vol(   0 ): 3.580E+14  Parms: SM      M1      
 Compute Stats, Diag. #    217  SIheff    vol(   0 ): 3.580E+14  Parms: SM      M1      
 Compute Stats, Diag. #    219  SIhsnow   vol(   0 ): 3.580E+14  Parms: SM      M1      
 Compute Stats, Diag. #     83  sIceLoad  vol(   0 ): 3.580E+14  Parms: SM      U1      
 Compute Stats, Diag. #    223  SIuice    vol(   0 ): 3.513E+14  Parms: UU      M1      
 Compute Stats, Diag. #    224  SIvice    vol(   0 ): 3.508E+14  Parms: VV      M1      
 Compute Stats, Diag. #    225  SItaux    vol(   0 ): 3.513E+14  Parms: UU      U1      
 Compute Stats, Diag. #    226  SItauy    vol(   0 ): 3.508E+14  Parms: VV      U1      
 cg2d: Sum(rhs),rhsMax =  -1.19436359219262E+01  2.90900366670974E-01
(PID.TID 0000.0001)      cg2d_init_res =   3.96357515902867E-02
(PID.TID 0000.0001)      cg2d_iters(min,last) =      -1      24
(PID.TID 0000.0001)      cg2d_last_res =   2.31438561120961E-05
(PID.TID 0000.0001) // =======================================================
(PID.TID 0000.0001) // Begin MONITOR dynamic field statistics
(PID.TID 0000.0001) // =======================================================
(PID.TID 0000.0001) %MON time_tsnumber                =                   768
(PID.TID 0000.0001) %MON time_secondsf                =   6.9120000000000E+05
(PID.TID 0000.0001) %MON dynstat_eta_max              =   1.0359262033526E+00
(PID.TID 0000.0001) %MON dynstat_eta_min              =  -1.8525127442047E+00
(PID.TID 0000.0001) %MON dynstat_eta_mean             =   3.7781534965267E-04
(PID.TID 0000.0001) %MON dynstat_eta_sd               =   6.3393386142343E-01
(PID.TID 0000.0001) %MON dynstat_eta_del2             =   5.2338287558670E-05
(PID.TID 0000.0001) %MON dynstat_uvel_max             =   7.1532726196057E-01
(PID.TID 0000.0001) %MON dynstat_uvel_min             =  -6.8982809905980E-01
(PID.TID 0000.0001) %MON dynstat_uvel_mean            =   1.3514812479054E-03
(PID.TID 0000.0001) %MON dynstat_uvel_sd              =   1.8488428902511E-02
(PID.TID 0000.0001) %MON dynstat_uvel_del2            =   7.1474431334618E-06
(PID.TID 0000.0001) %MON dynstat_vvel_max             =   5.7028473464224E-01
(PID.TID 0000.0001) %MON dynstat_vvel_min             =  -8.6263393847102E-01
(PID.TID 0000.0001) %MON dynstat_vvel_mean            =   1.1111966542114E-03
(PID.TID 0000.0001) %MON dynstat_vvel_sd              =   1.9366663817295E-02
(PID.TID 0000.0001) %MON dynstat_vvel_del2            =   7.2332757600634E-06
(PID.TID 0000.0001) %MON dynstat_wvel_max             =   3.5032250583377E-04
(PID.TID 0000.0001) %MON dynstat_wvel_min             =  -8.3032726193635E-04
(PID.TID 0000.0001) %MON dynstat_wvel_mean            =   4.2803695441600E-09
(PID.TID 0000.0001) %MON dynstat_wvel_sd              =   1.7917687042367E-05
(PID.TID 0000.0001) %MON dynstat_wvel_del2            =   1.3674874127291E-08
(PID.TID 0000.0001) %MON dynstat_theta_max            =   3.2050464119538E+01
(PID.TID 0000.0001) %MON dynstat_theta_min            =  -2.0398718111639E+00
(PID.TID 0000.0001) %MON dynstat_theta_mean           =   3.5902672620931E+00
(PID.TID 0000.0001) %MON dynstat_theta_sd             =   4.4366821636686E+00
(PID.TID 0000.0001) %MON dynstat_theta_del2           =   9.1729226704092E-05
(PID.TID 0000.0001) %MON dynstat_salt_max             =   4.0711550294936E+01
(PID.TID 0000.0001) %MON dynstat_salt_min             =   5.3169267924658E+00
(PID.TID 0000.0001) %MON dynstat_salt_mean            =   3.4725568407854E+01
(PID.TID 0000.0001) %MON dynstat_salt_sd              =   3.7706782003695E-01
(PID.TID 0000.0001) %MON dynstat_salt_del2            =   3.6020087546882E-05
(PID.TID 0000.0001) %MON dynstat_sst_max              =   3.2050447299888E+01
(PID.TID 0000.0001) %MON dynstat_sst_min              =  -1.8071810673681E+00
(PID.TID 0000.0001) %MON dynstat_sst_mean             =   1.8477540363934E+01
(PID.TID 0000.0001) %MON dynstat_sst_sd               =   1.0253815475447E+01
(PID.TID 0000.0001) %MON dynstat_sst_del2             =   7.9337221352870E-04
(PID.TID 0000.0001) %MON dynstat_sss_max              =   3.9102185664606E+01
(PID.TID 0000.0001) %MON dynstat_sss_min              =   5.3169267924658E+00
(PID.TID 0000.0001) %MON dynstat_sss_mean             =   3.4700023265300E+01
(PID.TID 0000.0001) %MON dynstat_sss_sd               =   1.1726308178645E+00
(PID.TID 0000.0001) %MON dynstat_sss_del2             =   1.1155624243733E-03
(PID.TID 0000.0001) %MON forcing_qnet_max             =   1.6797456054688E+03
(PID.TID 0000.0001) %MON forcing_qnet_min             =  -7.9243437568426E+02
(PID.TID 0000.0001) %MON forcing_qnet_mean            =  -3.0108600766074E+01
(PID.TID 0000.0001) %MON forcing_qnet_sd              =   2.0818395597489E+02
(PID.TID 0000.0001) %MON forcing_qnet_del2            =   3.3558359297973E-01
(PID.TID 0000.0001) %MON forcing_qsw_max              =   0.0000000000000E+00
(PID.TID 0000.0001) %MON forcing_qsw_min              =  -1.0981033184549E+02
(PID.TID 0000.0001) %MON forcing_qsw_mean             =  -2.2012100090756E+01
(PID.TID 0000.0001) %MON forcing_qsw_sd               =   3.0694170257572E+01
(PID.TID 0000.0001) %MON forcing_qsw_del2             =   1.9982422812281E-02
(PID.TID 0000.0001) %MON forcing_empmr_max            =   1.7072211485356E-03
(PID.TID 0000.0001) %MON forcing_empmr_min            =  -9.4928845763206E-02
(PID.TID 0000.0001) %MON forcing_empmr_mean           =  -4.2376586706832E-06
(PID.TID 0000.0001) %MON forcing_empmr_sd             =   4.0029226066183E-04
(PID.TID 0000.0001) %MON forcing_empmr_del2           =   4.1992649605452E-06
(PID.TID 0000.0001) %MON forcing_fu_max               =   9.8633071780205E-01
(PID.TID 0000.0001) %MON forcing_fu_min               =  -8.5085192322731E-01
(PID.TID 0000.0001) %MON forcing_fu_mean              =   2.9844760854266E-03
(PID.TID 0000.0001) %MON forcing_fu_sd                =   1.0261429127102E-01
(PID.TID 0000.0001) %MON forcing_fu_del2              =   1.3065307454817E-04
(PID.TID 0000.0001) %MON forcing_fv_max               =   9.6297168731689E-01
(PID.TID 0000.0001) %MON forcing_fv_min               =  -1.0782076120377E+00
(PID.TID 0000.0001) %MON forcing_fv_mean              =  -1.1340894775946E-02
(PID.TID 0000.0001) %MON forcing_fv_sd                =   1.0474167317273E-01
(PID.TID 0000.0001) %MON forcing_fv_del2              =   1.2544560692734E-04
(PID.TID 0000.0001) %MON trAdv_CFL_u_max              =   1.0157973183980E-02
(PID.TID 0000.0001) %MON trAdv_CFL_v_max              =   1.2253617793989E-02
(PID.TID 0000.0001) %MON trAdv_CFL_w_max              =   2.0039102279395E-02
(PID.TID 0000.0001) %MON advcfl_uvel_max              =   8.0322896916960E-03
(PID.TID 0000.0001) %MON advcfl_vvel_max              =   1.0739780092029E-02
(PID.TID 0000.0001) %MON advcfl_wvel_max              =   2.5021423158171E-02
(PID.TID 0000.0001) %MON advcfl_W_hf_max              =   2.5104173374831E-02
(PID.TID 0000.0001) %MON pe_b_mean                    =   5.2862328486989E-04
(PID.TID 0000.0001) %MON ke_max                       =   3.8303176573927E-01
(PID.TID 0000.0001) %MON ke_mean                      =   3.4715587913506E-04
(PID.TID 0000.0001) %MON ke_vol                       =   1.3349980108755E+18
(PID.TID 0000.0001) %MON vort_r_min                   =  -1.2401650424249E-05
(PID.TID 0000.0001) %MON vort_r_max                   =   1.7706075898993E-05
(PID.TID 0000.0001) %MON vort_a_mean                  =  -1.9727864647440E-05
(PID.TID 0000.0001) %MON vort_a_sd                    =   7.4542991700077E-05
(PID.TID 0000.0001) %MON vort_p_mean                  =  -2.1760531737462E-05
(PID.TID 0000.0001) %MON vort_p_sd                    =   9.7245943246208E-05
(PID.TID 0000.0001) %MON surfExpan_theta_mean         =   1.4116779787565E-08
(PID.TID 0000.0001) %MON surfExpan_salt_mean          =   4.3200302130505E-08
(PID.TID 0000.0001) // =======================================================
(PID.TID 0000.0001) // End MONITOR dynamic field statistics
(PID.TID 0000.0001) // =======================================================
(PID.TID 0000.0001) // =======================================================
(PID.TID 0000.0001) // Begin MONITOR SEAICE statistics
(PID.TID 0000.0001) // =======================================================
(PID.TID 0000.0001) %MON seaice_tsnumber              =                   768
(PID.TID 0000.0001) %MON seaice_time_sec              =   6.9120000000000E+05
(PID.TID 0000.0001) %MON seaice_uice_max              =   4.0000000000000E-01
(PID.TID 0000.0001) %MON seaice_uice_min              =  -4.0000000000000E-01
(PID.TID 0000.0001) %MON seaice_uice_mean             =  -8.3054598624025E-03
(PID.TID 0000.0001) %MON seaice_uice_sd               =   1.9802383574176E-01
(PID.TID 0000.0001) %MON seaice_uice_del2             =   2.2931571122150E-04
(PID.TID 0000.0001) %MON seaice_vice_max              =   4.0000000000000E-01
(PID.TID 0000.0001) %MON seaice_vice_min              =  -4.0000000000000E-01
(PID.TID 0000.0001) %MON seaice_vice_mean             =  -2.1960776359499E-02
(PID.TID 0000.0001) %MON seaice_vice_sd               =   2.1302038025672E-01
(PID.TID 0000.0001) %MON seaice_vice_del2             =   2.3932563818061E-04
(PID.TID 0000.0001) %MON seaice_area_max              =   1.0000000000000E+00
(PID.TID 0000.0001) %MON seaice_area_min              =   0.0000000000000E+00
(PID.TID 0000.0001) %MON seaice_area_mean             =   6.5804254032820E-02
(PID.TID 0000.0001) %MON seaice_area_sd               =   2.2970929307380E-01
(PID.TID 0000.0001) %MON seaice_area_del2             =   3.9157440767420E-04
(PID.TID 0000.0001) %MON seaice_heff_max              =   2.4997540702811E+01
(PID.TID 0000.0001) %MON seaice_heff_min              =   0.0000000000000E+00
(PID.TID 0000.0001) %MON seaice_heff_mean             =   2.1257555275478E-01
(PID.TID 0000.0001) %MON seaice_heff_sd               =   1.0665240399468E+00
(PID.TID 0000.0001) %MON seaice_heff_del2             =   3.8407767839609E-03
(PID.TID 0000.0001) %MON seaice_hsnow_max             =   8.2566500054090E+00
(PID.TID 0000.0001) %MON seaice_hsnow_min             =   0.0000000000000E+00
(PID.TID 0000.0001) %MON seaice_hsnow_mean            =   2.4030414600927E-02
(PID.TID 0000.0001) %MON seaice_hsnow_sd              =   1.5614891000547E-01
(PID.TID 0000.0001) %MON seaice_hsnow_del2            =   1.2393356393997E-03
(PID.TID 0000.0001) // =======================================================
(PID.TID 0000.0001) // End MONITOR SEAICE statistics
(PID.TID 0000.0001) // =======================================================
 Computing Diagnostic #     86  oceQnet      Counter:       4   Parms: SM      U1      
 Computing Diagnostic #     87  oceQsw       Counter:       4   Parms: SM      U1      
 Computing Diagnostic #     84  oceFWflx     Counter:       4   Parms: SM      U1      
 Computing Diagnostic #     85  oceSflux     Counter:       4   Parms: SM      U1      
 Computing Diagnostic #     80  oceTAUX      Counter:       4   Parms: UU      U1      
           Vector  Mate for  oceTAUX      Diagnostic #     81  oceTAUY  exists 
 Computing Diagnostic #     81  oceTAUY      Counter:       4   Parms: VV      U1      
           Vector  Mate for  oceTAUY      Diagnostic #     80  oceTAUX  exists 
 Computing Diagnostic #     26  THETA        Counter:       4   Parms: SMR     MR      
 Computing Diagnostic #     27  SALT         Counter:       4   Parms: SMR     MR      
 Computing Diagnostic #     30  UVEL         Counter:       4   Parms: UUR     MR      
           Vector  Mate for  UVEL         Diagnostic #     31  VVEL     exists 
 Computing Diagnostic #     31  VVEL         Counter:       4   Parms: VVR     MR      
           Vector  Mate for  VVEL         Diagnostic #     30  UVEL     exists 
 Computing Diagnostic #    214  SIarea       Counter:       4   Parms: SM      M1      
 Computing Diagnostic #    217  SIheff       Counter:       4   Parms: SM      M1      
 Computing Diagnostic #    219  SIhsnow      Counter:       4   Parms: SM      M1      
 Computing Diagnostic #     83  sIceLoad     Counter:       4   Parms: SM      U1      
 Computing Diagnostic #    223  SIuice       Counter:       4   Parms: UU      M1      
           Vector  Mate for  SIuice       Diagnostic #    224  SIvice   exists 
 Computing Diagnostic #    224  SIvice       Counter:       4   Parms: VV      M1      
           Vector  Mate for  SIvice       Diagnostic #    223  SIuice   exists 
 Computing Diagnostic #    225  SItaux       Counter:       4   Parms: UU      U1      
           Vector  Mate for  SItaux       Diagnostic #    226  SItauy   exists 
 Computing Diagnostic #    226  SItauy       Counter:       4   Parms: VV      U1      
           Vector  Mate for  SItauy       Diagnostic #    225  SItaux   exists 
 Computing Diagnostic #    285  SIareaN      Counter:       4   Parms: SM      MX      
 Computing Diagnostic #    284  SIheffN      Counter:       4   Parms: SM      MX      
 Computing Diagnostic #    286  SIhsnowN     Counter:       4   Parms: SM      MX      
 Compute Stats, Diag. #    214  SIarea    vol(   0 ): 3.580E+14  Parms: SM      M1      
 Compute Stats, Diag. #    217  SIheff    vol(   0 ): 3.580E+14  Parms: SM      M1      
 Compute Stats, Diag. #    219  SIhsnow   vol(   0 ): 3.580E+14  Parms: SM      M1      
 Compute Stats, Diag. #     83  sIceLoad  vol(   0 ): 3.580E+14  Parms: SM      U1      
 Compute Stats, Diag. #    223  SIuice    vol(   0 ): 3.513E+14  Parms: UU      M1      
 Compute Stats, Diag. #    224  SIvice    vol(   0 ): 3.508E+14  Parms: VV      M1      
 Compute Stats, Diag. #    225  SItaux    vol(   0 ): 3.513E+14  Parms: UU      U1      
 Compute Stats, Diag. #    226  SItauy    vol(   0 ): 3.508E+14  Parms: VV      U1      
 cg2d: Sum(rhs),rhsMax =  -1.20603798485493E+01  2.90853964352855E-01
 Compute Stats, Diag. #    214  SIarea    vol(   0 ): 3.580E+14  Parms: SM      M1      
 Compute Stats, Diag. #    217  SIheff    vol(   0 ): 3.580E+14  Parms: SM      M1      
 Compute Stats, Diag. #    219  SIhsnow   vol(   0 ): 3.580E+14  Parms: SM      M1      
 Compute Stats, Diag. #     83  sIceLoad  vol(   0 ): 3.580E+14  Parms: SM      U1      
 Compute Stats, Diag. #    223  SIuice    vol(   0 ): 3.513E+14  Parms: UU      M1      
 Compute Stats, Diag. #    224  SIvice    vol(   0 ): 3.508E+14  Parms: VV      M1      
 Compute Stats, Diag. #    225  SItaux    vol(   0 ): 3.513E+14  Parms: UU      U1      
 Compute Stats, Diag. #    226  SItauy    vol(   0 ): 3.508E+14  Parms: VV      U1      
 cg2d: Sum(rhs),rhsMax =  -1.21641971425812E+01  2.90804025687646E-01
 Compute Stats, Diag. #    214  SIarea    vol(   0 ): 3.580E+14  Parms: SM      M1      
 Compute Stats, Diag. #    217  SIheff    vol(   0 ): 3.580E+14  Parms: SM      M1      
 Compute Stats, Diag. #    219  SIhsnow   vol(   0 ): 3.580E+14  Parms: SM      M1      
 Compute Stats, Diag. #     83  sIceLoad  vol(   0 ): 3.580E+14  Parms: SM      U1      
 Compute Stats, Diag. #    223  SIuice    vol(   0 ): 3.513E+14  Parms: UU      M1      
 Compute Stats, Diag. #    224  SIvice    vol(   0 ): 3.508E+14  Parms: VV      M1      
 Compute Stats, Diag. #    225  SItaux    vol(   0 ): 3.513E+14  Parms: UU      U1      
 Compute Stats, Diag. #    226  SItauy    vol(   0 ): 3.508E+14  Parms: VV      U1      
 cg2d: Sum(rhs),rhsMax =  -1.22471990036083E+01  2.90750596740934E-01
 Compute Stats, Diag. #    214  SIarea    vol(   0 ): 3.580E+14  Parms: SM      M1      
 Compute Stats, Diag. #    217  SIheff    vol(   0 ): 3.580E+14  Parms: SM      M1      
 Compute Stats, Diag. #    219  SIhsnow   vol(   0 ): 3.580E+14  Parms: SM      M1      
 Compute Stats, Diag. #     83  sIceLoad  vol(   0 ): 3.580E+14  Parms: SM      U1      
 Compute Stats, Diag. #    223  SIuice    vol(   0 ): 3.513E+14  Parms: UU      M1      
 Compute Stats, Diag. #    224  SIvice    vol(   0 ): 3.508E+14  Parms: VV      M1      
 Compute Stats, Diag. #    225  SItaux    vol(   0 ): 3.513E+14  Parms: UU      U1      
 Compute Stats, Diag. #    226  SItauy    vol(   0 ): 3.508E+14  Parms: VV      U1      
 cg2d: Sum(rhs),rhsMax =  -1.23254128403284E+01  2.90693283900397E-01
 Computing Diagnostic #     86  oceQnet      Counter:       4   Parms: SM      U1      
 Computing Diagnostic #     87  oceQsw       Counter:       4   Parms: SM      U1      
 Computing Diagnostic #     84  oceFWflx     Counter:       4   Parms: SM      U1      
 Computing Diagnostic #     85  oceSflux     Counter:       4   Parms: SM      U1      
 Computing Diagnostic #     80  oceTAUX      Counter:       4   Parms: UU      U1      
           Vector  Mate for  oceTAUX      Diagnostic #     81  oceTAUY  exists 
 Computing Diagnostic #     81  oceTAUY      Counter:       4   Parms: VV      U1      
           Vector  Mate for  oceTAUY      Diagnostic #     80  oceTAUX  exists 
 Computing Diagnostic #     26  THETA        Counter:       4   Parms: SMR     MR      
 Computing Diagnostic #     27  SALT         Counter:       4   Parms: SMR     MR      
 Computing Diagnostic #     30  UVEL         Counter:       4   Parms: UUR     MR      
           Vector  Mate for  UVEL         Diagnostic #     31  VVEL     exists 
 Computing Diagnostic #     31  VVEL         Counter:       4   Parms: VVR     MR      
           Vector  Mate for  VVEL         Diagnostic #     30  UVEL     exists 
 Computing Diagnostic #    214  SIarea       Counter:       4   Parms: SM      M1      
 Computing Diagnostic #    217  SIheff       Counter:       4   Parms: SM      M1      
 Computing Diagnostic #    219  SIhsnow      Counter:       4   Parms: SM      M1      
 Computing Diagnostic #     83  sIceLoad     Counter:       4   Parms: SM      U1      
 Computing Diagnostic #    223  SIuice       Counter:       4   Parms: UU      M1      
           Vector  Mate for  SIuice       Diagnostic #    224  SIvice   exists 
 Computing Diagnostic #    224  SIvice       Counter:       4   Parms: VV      M1      
           Vector  Mate for  SIvice       Diagnostic #    223  SIuice   exists 
 Computing Diagnostic #    225  SItaux       Counter:       4   Parms: UU      U1      
           Vector  Mate for  SItaux       Diagnostic #    226  SItauy   exists 
 Computing Diagnostic #    226  SItauy       Counter:       4   Parms: VV      U1      
           Vector  Mate for  SItauy       Diagnostic #    225  SItaux   exists 
 Computing Diagnostic #    285  SIareaN      Counter:       4   Parms: SM      MX      
 Computing Diagnostic #    284  SIheffN      Counter:       4   Parms: SM      MX      
 Computing Diagnostic #    286  SIhsnowN     Counter:       4   Parms: SM      MX      
 Compute Stats, Diag. #    214  SIarea    vol(   0 ): 3.580E+14  Parms: SM      M1      
 Compute Stats, Diag. #    217  SIheff    vol(   0 ): 3.580E+14  Parms: SM      M1      
 Compute Stats, Diag. #    219  SIhsnow   vol(   0 ): 3.580E+14  Parms: SM      M1      
 Compute Stats, Diag. #     83  sIceLoad  vol(   0 ): 3.580E+14  Parms: SM      U1      
 Compute Stats, Diag. #    223  SIuice    vol(   0 ): 3.513E+14  Parms: UU      M1      
 Compute Stats, Diag. #    224  SIvice    vol(   0 ): 3.508E+14  Parms: VV      M1      
 Compute Stats, Diag. #    225  SItaux    vol(   0 ): 3.513E+14  Parms: UU      U1      
 Compute Stats, Diag. #    226  SItauy    vol(   0 ): 3.508E+14  Parms: VV      U1      
 cg2d: Sum(rhs),rhsMax =  -1.24119048747569E+01  2.90632687788481E-01
 Compute Stats, Diag. #    214  SIarea    vol(   0 ): 3.580E+14  Parms: SM      M1      
 Compute Stats, Diag. #    217  SIheff    vol(   0 ): 3.580E+14  Parms: SM      M1      
 Compute Stats, Diag. #    219  SIhsnow   vol(   0 ): 3.580E+14  Parms: SM      M1      
 Compute Stats, Diag. #     83  sIceLoad  vol(   0 ): 3.580E+14  Parms: SM      U1      
 Compute Stats, Diag. #    223  SIuice    vol(   0 ): 3.513E+14  Parms: UU      M1      
 Compute Stats, Diag. #    224  SIvice    vol(   0 ): 3.508E+14  Parms: VV      M1      
 Compute Stats, Diag. #    225  SItaux    vol(   0 ): 3.513E+14  Parms: UU      U1      
 Compute Stats, Diag. #    226  SItauy    vol(   0 ): 3.508E+14  Parms: VV      U1      
 cg2d: Sum(rhs),rhsMax =  -1.24927484968462E+01  2.90568309961661E-01
 Compute Stats, Diag. #    214  SIarea    vol(   0 ): 3.580E+14  Parms: SM      M1      
 Compute Stats, Diag. #    217  SIheff    vol(   0 ): 3.580E+14  Parms: SM      M1      
 Compute Stats, Diag. #    219  SIhsnow   vol(   0 ): 3.580E+14  Parms: SM      M1      
 Compute Stats, Diag. #     83  sIceLoad  vol(   0 ): 3.580E+14  Parms: SM      U1      
 Compute Stats, Diag. #    223  SIuice    vol(   0 ): 3.513E+14  Parms: UU      M1      
 Compute Stats, Diag. #    224  SIvice    vol(   0 ): 3.508E+14  Parms: VV      M1      
 Compute Stats, Diag. #    225  SItaux    vol(   0 ): 3.513E+14  Parms: UU      U1      
 Compute Stats, Diag. #    226  SItauy    vol(   0 ): 3.508E+14  Parms: VV      U1      
 cg2d: Sum(rhs),rhsMax =  -1.25645117767296E+01  2.90500876875832E-01
 Compute Stats, Diag. #    214  SIarea    vol(   0 ): 3.580E+14  Parms: SM      M1      
 Compute Stats, Diag. #    217  SIheff    vol(   0 ): 3.580E+14  Parms: SM      M1      
 Compute Stats, Diag. #    219  SIhsnow   vol(   0 ): 3.580E+14  Parms: SM      M1      
 Compute Stats, Diag. #     83  sIceLoad  vol(   0 ): 3.580E+14  Parms: SM      U1      
 Compute Stats, Diag. #    223  SIuice    vol(   0 ): 3.513E+14  Parms: UU      M1      
 Compute Stats, Diag. #    224  SIvice    vol(   0 ): 3.508E+14  Parms: VV      M1      
 Compute Stats, Diag. #    225  SItaux    vol(   0 ): 3.513E+14  Parms: UU      U1      
 Compute Stats, Diag. #    226  SItauy    vol(   0 ): 3.508E+14  Parms: VV      U1      
 cg2d: Sum(rhs),rhsMax =  -1.26477279048427E+01  2.90430895322749E-01
(PID.TID 0000.0001)      cg2d_init_res =   4.10675235931508E-02
(PID.TID 0000.0001)      cg2d_iters(min,last) =      -1      24
(PID.TID 0000.0001)      cg2d_last_res =   2.50695574727209E-05
(PID.TID 0000.0001) // =======================================================
(PID.TID 0000.0001) // Begin MONITOR dynamic field statistics
(PID.TID 0000.0001) // =======================================================
(PID.TID 0000.0001) %MON time_tsnumber                =                   776
(PID.TID 0000.0001) %MON time_secondsf                =   6.9840000000000E+05
(PID.TID 0000.0001) %MON dynstat_eta_max              =   1.0345791066230E+00
(PID.TID 0000.0001) %MON dynstat_eta_min              =  -1.8506345443809E+00
(PID.TID 0000.0001) %MON dynstat_eta_mean             =   4.0008802779285E-04
(PID.TID 0000.0001) %MON dynstat_eta_sd               =   6.3365381102616E-01
(PID.TID 0000.0001) %MON dynstat_eta_del2             =   5.2077036653081E-05
(PID.TID 0000.0001) %MON dynstat_uvel_max             =   7.1431638808836E-01
(PID.TID 0000.0001) %MON dynstat_uvel_min             =  -6.9753462020886E-01
(PID.TID 0000.0001) %MON dynstat_uvel_mean            =   1.3408306683753E-03
(PID.TID 0000.0001) %MON dynstat_uvel_sd              =   1.8467146335243E-02
(PID.TID 0000.0001) %MON dynstat_uvel_del2            =   7.1288493046369E-06
(PID.TID 0000.0001) %MON dynstat_vvel_max             =   5.3835223594839E-01
(PID.TID 0000.0001) %MON dynstat_vvel_min             =  -8.6131717218668E-01
(PID.TID 0000.0001) %MON dynstat_vvel_mean            =   1.1002832209625E-03
(PID.TID 0000.0001) %MON dynstat_vvel_sd              =   1.9374637637452E-02
(PID.TID 0000.0001) %MON dynstat_vvel_del2            =   7.2164377981406E-06
(PID.TID 0000.0001) %MON dynstat_wvel_max             =   3.4540585149094E-04
(PID.TID 0000.0001) %MON dynstat_wvel_min             =  -8.2863081855167E-04
(PID.TID 0000.0001) %MON dynstat_wvel_mean            =   5.6346490508981E-09
(PID.TID 0000.0001) %MON dynstat_wvel_sd              =   1.7691316787346E-05
(PID.TID 0000.0001) %MON dynstat_wvel_del2            =   1.3597237431225E-08
(PID.TID 0000.0001) %MON dynstat_theta_max            =   3.2032618666117E+01
(PID.TID 0000.0001) %MON dynstat_theta_min            =  -2.0398562243097E+00
(PID.TID 0000.0001) %MON dynstat_theta_mean           =   3.5902833351755E+00
(PID.TID 0000.0001) %MON dynstat_theta_sd             =   4.4367676849666E+00
(PID.TID 0000.0001) %MON dynstat_theta_del2           =   9.1661576087161E-05
(PID.TID 0000.0001) %MON dynstat_salt_max             =   4.0711549750235E+01
(PID.TID 0000.0001) %MON dynstat_salt_min             =   5.3193337171613E+00
(PID.TID 0000.0001) %MON dynstat_salt_mean            =   3.4725568222256E+01
(PID.TID 0000.0001) %MON dynstat_salt_sd              =   3.7706921857398E-01
(PID.TID 0000.0001) %MON dynstat_salt_del2            =   3.5916090844723E-05
(PID.TID 0000.0001) %MON dynstat_sst_max              =   3.2032610975507E+01
(PID.TID 0000.0001) %MON dynstat_sst_min              =  -1.8053611550360E+00
(PID.TID 0000.0001) %MON dynstat_sst_mean             =   1.8480900893697E+01
(PID.TID 0000.0001) %MON dynstat_sst_sd               =   1.0256200765331E+01
(PID.TID 0000.0001) %MON dynstat_sst_del2             =   7.9396765021097E-04
(PID.TID 0000.0001) %MON dynstat_sss_max              =   3.9102036503354E+01
(PID.TID 0000.0001) %MON dynstat_sss_min              =   5.3193337171613E+00
(PID.TID 0000.0001) %MON dynstat_sss_mean             =   3.4700052540042E+01
(PID.TID 0000.0001) %MON dynstat_sss_sd               =   1.1729595797607E+00
(PID.TID 0000.0001) %MON dynstat_sss_del2             =   1.1090144377407E-03
(PID.TID 0000.0001) %MON forcing_qnet_max             =   2.7387609863281E+03
(PID.TID 0000.0001) %MON forcing_qnet_min             =  -7.4115802001953E+02
(PID.TID 0000.0001) %MON forcing_qnet_mean            =  -3.4041872376463E+01
(PID.TID 0000.0001) %MON forcing_qnet_sd              =   2.0984351761339E+02
(PID.TID 0000.0001) %MON forcing_qnet_del2            =   3.3755452836843E-01
(PID.TID 0000.0001) %MON forcing_qsw_max              =   0.0000000000000E+00
(PID.TID 0000.0001) %MON forcing_qsw_min              =  -1.1034388396712E+02
(PID.TID 0000.0001) %MON forcing_qsw_mean             =  -2.2833774790999E+01
(PID.TID 0000.0001) %MON forcing_qsw_sd               =   3.0841426918304E+01
(PID.TID 0000.0001) %MON forcing_qsw_del2             =   2.0181914984822E-02
(PID.TID 0000.0001) %MON forcing_empmr_max            =   1.4333768049255E-03
(PID.TID 0000.0001) %MON forcing_empmr_min            =  -5.9055399149656E-02
(PID.TID 0000.0001) %MON forcing_empmr_mean           =  -3.0097014134982E-06
(PID.TID 0000.0001) %MON forcing_empmr_sd             =   2.8767717613775E-04
(PID.TID 0000.0001) %MON forcing_empmr_del2           =   2.8942685170279E-06
(PID.TID 0000.0001) %MON forcing_fu_max               =   9.9983036518097E-01
(PID.TID 0000.0001) %MON forcing_fu_min               =  -9.3192008137703E-01
(PID.TID 0000.0001) %MON forcing_fu_mean              =   2.5489310772742E-03
(PID.TID 0000.0001) %MON forcing_fu_sd                =   1.0476401228131E-01
(PID.TID 0000.0001) %MON forcing_fu_del2              =   1.3371858995785E-04
(PID.TID 0000.0001) %MON forcing_fv_max               =   9.5817455649376E-01
(PID.TID 0000.0001) %MON forcing_fv_min               =  -1.1809158325195E+00
(PID.TID 0000.0001) %MON forcing_fv_mean              =  -1.0999290229012E-02
(PID.TID 0000.0001) %MON forcing_fv_sd                =   1.0480734528346E-01
(PID.TID 0000.0001) %MON forcing_fv_del2              =   1.2625050096665E-04
(PID.TID 0000.0001) %MON trAdv_CFL_u_max              =   1.0165208238930E-02
(PID.TID 0000.0001) %MON trAdv_CFL_v_max              =   1.2264668546782E-02
(PID.TID 0000.0001) %MON trAdv_CFL_w_max              =   2.0132299053938E-02
(PID.TID 0000.0001) %MON advcfl_uvel_max              =   8.2927970762756E-03
(PID.TID 0000.0001) %MON advcfl_vvel_max              =   1.0821025626985E-02
(PID.TID 0000.0001) %MON advcfl_wvel_max              =   2.4497611412096E-02
(PID.TID 0000.0001) %MON advcfl_W_hf_max              =   2.4578754770280E-02
(PID.TID 0000.0001) %MON pe_b_mean                    =   5.2815635214436E-04
(PID.TID 0000.0001) %MON ke_max                       =   3.8083962308786E-01
(PID.TID 0000.0001) %MON ke_mean                      =   3.4690019794121E-04
(PID.TID 0000.0001) %MON ke_vol                       =   1.3349980192339E+18
(PID.TID 0000.0001) %MON vort_r_min                   =  -1.2816283839612E-05
(PID.TID 0000.0001) %MON vort_r_max                   =   1.7615036555932E-05
(PID.TID 0000.0001) %MON vort_a_mean                  =  -1.9727864647440E-05
(PID.TID 0000.0001) %MON vort_a_sd                    =   7.4542991197169E-05
(PID.TID 0000.0001) %MON vort_p_mean                  =  -2.1760531630483E-05
(PID.TID 0000.0001) %MON vort_p_sd                    =   9.7245998020032E-05
(PID.TID 0000.0001) %MON surfExpan_theta_mean         =  -1.5052686971910E-08
(PID.TID 0000.0001) %MON surfExpan_salt_mean          =   2.3774808207727E-08
(PID.TID 0000.0001) // =======================================================
(PID.TID 0000.0001) // End MONITOR dynamic field statistics
(PID.TID 0000.0001) // =======================================================
(PID.TID 0000.0001) // =======================================================
(PID.TID 0000.0001) // Begin MONITOR SEAICE statistics
(PID.TID 0000.0001) // =======================================================
(PID.TID 0000.0001) %MON seaice_tsnumber              =                   776
(PID.TID 0000.0001) %MON seaice_time_sec              =   6.9840000000000E+05
(PID.TID 0000.0001) %MON seaice_uice_max              =   4.0000000000000E-01
(PID.TID 0000.0001) %MON seaice_uice_min              =  -4.0000000000000E-01
(PID.TID 0000.0001) %MON seaice_uice_mean             =  -8.3054598624025E-03
(PID.TID 0000.0001) %MON seaice_uice_sd               =   1.9802383574176E-01
(PID.TID 0000.0001) %MON seaice_uice_del2             =   2.2931571122150E-04
(PID.TID 0000.0001) %MON seaice_vice_max              =   4.0000000000000E-01
(PID.TID 0000.0001) %MON seaice_vice_min              =  -4.0000000000000E-01
(PID.TID 0000.0001) %MON seaice_vice_mean             =  -2.1960776359499E-02
(PID.TID 0000.0001) %MON seaice_vice_sd               =   2.1302038025672E-01
(PID.TID 0000.0001) %MON seaice_vice_del2             =   2.3932563818061E-04
(PID.TID 0000.0001) %MON seaice_area_max              =   1.0000000000000E+00
(PID.TID 0000.0001) %MON seaice_area_min              =   0.0000000000000E+00
(PID.TID 0000.0001) %MON seaice_area_mean             =   6.5775841940643E-02
(PID.TID 0000.0001) %MON seaice_area_sd               =   2.2966027690993E-01
(PID.TID 0000.0001) %MON seaice_area_del2             =   3.9113378257173E-04
(PID.TID 0000.0001) %MON seaice_heff_max              =   2.4995640113368E+01
(PID.TID 0000.0001) %MON seaice_heff_min              =   0.0000000000000E+00
(PID.TID 0000.0001) %MON seaice_heff_mean             =   2.1254475723694E-01
(PID.TID 0000.0001) %MON seaice_heff_sd               =   1.0664949965420E+00
(PID.TID 0000.0001) %MON seaice_heff_del2             =   3.8401116975564E-03
(PID.TID 0000.0001) %MON seaice_hsnow_max             =   8.2560243828921E+00
(PID.TID 0000.0001) %MON seaice_hsnow_min             =   0.0000000000000E+00
(PID.TID 0000.0001) %MON seaice_hsnow_mean            =   2.4026656138457E-02
(PID.TID 0000.0001) %MON seaice_hsnow_sd              =   1.5613941464137E-01
(PID.TID 0000.0001) %MON seaice_hsnow_del2            =   1.2392288005024E-03
(PID.TID 0000.0001) // =======================================================
(PID.TID 0000.0001) // End MONITOR SEAICE statistics
(PID.TID 0000.0001) // =======================================================
 Computing Diagnostic #     86  oceQnet      Counter:       4   Parms: SM      U1      
 Computing Diagnostic #     87  oceQsw       Counter:       4   Parms: SM      U1      
 Computing Diagnostic #     84  oceFWflx     Counter:       4   Parms: SM      U1      
 Computing Diagnostic #     85  oceSflux     Counter:       4   Parms: SM      U1      
 Computing Diagnostic #     80  oceTAUX      Counter:       4   Parms: UU      U1      
           Vector  Mate for  oceTAUX      Diagnostic #     81  oceTAUY  exists 
 Computing Diagnostic #     81  oceTAUY      Counter:       4   Parms: VV      U1      
           Vector  Mate for  oceTAUY      Diagnostic #     80  oceTAUX  exists 
 Computing Diagnostic #     26  THETA        Counter:       4   Parms: SMR     MR      
 Computing Diagnostic #     27  SALT         Counter:       4   Parms: SMR     MR      
 Computing Diagnostic #     30  UVEL         Counter:       4   Parms: UUR     MR      
           Vector  Mate for  UVEL         Diagnostic #     31  VVEL     exists 
 Computing Diagnostic #     31  VVEL         Counter:       4   Parms: VVR     MR      
           Vector  Mate for  VVEL         Diagnostic #     30  UVEL     exists 
 Computing Diagnostic #    214  SIarea       Counter:       4   Parms: SM      M1      
 Computing Diagnostic #    217  SIheff       Counter:       4   Parms: SM      M1      
 Computing Diagnostic #    219  SIhsnow      Counter:       4   Parms: SM      M1      
 Computing Diagnostic #     83  sIceLoad     Counter:       4   Parms: SM      U1      
 Computing Diagnostic #    223  SIuice       Counter:       4   Parms: UU      M1      
           Vector  Mate for  SIuice       Diagnostic #    224  SIvice   exists 
 Computing Diagnostic #    224  SIvice       Counter:       4   Parms: VV      M1      
           Vector  Mate for  SIvice       Diagnostic #    223  SIuice   exists 
 Computing Diagnostic #    225  SItaux       Counter:       4   Parms: UU      U1      
           Vector  Mate for  SItaux       Diagnostic #    226  SItauy   exists 
 Computing Diagnostic #    226  SItauy       Counter:       4   Parms: VV      U1      
           Vector  Mate for  SItauy       Diagnostic #    225  SItaux   exists 
 Computing Diagnostic #    285  SIareaN      Counter:       4   Parms: SM      MX      
 Computing Diagnostic #    284  SIheffN      Counter:       4   Parms: SM      MX      
 Computing Diagnostic #    286  SIhsnowN     Counter:       4   Parms: SM      MX      
 Compute Stats, Diag. #    214  SIarea    vol(   0 ): 3.580E+14  Parms: SM      M1      
 Compute Stats, Diag. #    217  SIheff    vol(   0 ): 3.580E+14  Parms: SM      M1      
 Compute Stats, Diag. #    219  SIhsnow   vol(   0 ): 3.580E+14  Parms: SM      M1      
 Compute Stats, Diag. #     83  sIceLoad  vol(   0 ): 3.580E+14  Parms: SM      U1      
 Compute Stats, Diag. #    223  SIuice    vol(   0 ): 3.513E+14  Parms: UU      M1      
 Compute Stats, Diag. #    224  SIvice    vol(   0 ): 3.508E+14  Parms: VV      M1      
 Compute Stats, Diag. #    225  SItaux    vol(   0 ): 3.513E+14  Parms: UU      U1      
 Compute Stats, Diag. #    226  SItauy    vol(   0 ): 3.508E+14  Parms: VV      U1      
 cg2d: Sum(rhs),rhsMax =  -1.27241651662789E+01  2.90358399521912E-01
 Compute Stats, Diag. #    214  SIarea    vol(   0 ): 3.580E+14  Parms: SM      M1      
 Compute Stats, Diag. #    217  SIheff    vol(   0 ): 3.580E+14  Parms: SM      M1      
 Compute Stats, Diag. #    219  SIhsnow   vol(   0 ): 3.580E+14  Parms: SM      M1      
 Compute Stats, Diag. #     83  sIceLoad  vol(   0 ): 3.580E+14  Parms: SM      U1      
 Compute Stats, Diag. #    223  SIuice    vol(   0 ): 3.513E+14  Parms: UU      M1      
 Compute Stats, Diag. #    224  SIvice    vol(   0 ): 3.508E+14  Parms: VV      M1      
 Compute Stats, Diag. #    225  SItaux    vol(   0 ): 3.513E+14  Parms: UU      U1      
 Compute Stats, Diag. #    226  SItauy    vol(   0 ): 3.508E+14  Parms: VV      U1      
 cg2d: Sum(rhs),rhsMax =  -1.28064204088183E+01  2.90283654360216E-01
 Compute Stats, Diag. #    214  SIarea    vol(   0 ): 3.580E+14  Parms: SM      M1      
 Compute Stats, Diag. #    217  SIheff    vol(   0 ): 3.580E+14  Parms: SM      M1      
 Compute Stats, Diag. #    219  SIhsnow   vol(   0 ): 3.580E+14  Parms: SM      M1      
 Compute Stats, Diag. #     83  sIceLoad  vol(   0 ): 3.580E+14  Parms: SM      U1      
 Compute Stats, Diag. #    223  SIuice    vol(   0 ): 3.513E+14  Parms: UU      M1      
 Compute Stats, Diag. #    224  SIvice    vol(   0 ): 3.508E+14  Parms: VV      M1      
 Compute Stats, Diag. #    225  SItaux    vol(   0 ): 3.513E+14  Parms: UU      U1      
 Compute Stats, Diag. #    226  SItauy    vol(   0 ): 3.508E+14  Parms: VV      U1      
 cg2d: Sum(rhs),rhsMax =  -1.28922641802668E+01  2.90207573495500E-01
 Compute Stats, Diag. #    214  SIarea    vol(   0 ): 3.580E+14  Parms: SM      M1      
 Compute Stats, Diag. #    217  SIheff    vol(   0 ): 3.580E+14  Parms: SM      M1      
 Compute Stats, Diag. #    219  SIhsnow   vol(   0 ): 3.580E+14  Parms: SM      M1      
 Compute Stats, Diag. #     83  sIceLoad  vol(   0 ): 3.580E+14  Parms: SM      U1      
 Compute Stats, Diag. #    223  SIuice    vol(   0 ): 3.513E+14  Parms: UU      M1      
 Compute Stats, Diag. #    224  SIvice    vol(   0 ): 3.508E+14  Parms: VV      M1      
 Compute Stats, Diag. #    225  SItaux    vol(   0 ): 3.513E+14  Parms: UU      U1      
 Compute Stats, Diag. #    226  SItauy    vol(   0 ): 3.508E+14  Parms: VV      U1      
 cg2d: Sum(rhs),rhsMax =  -1.29679357995255E+01  2.90130621873687E-01
 Computing Diagnostic #     86  oceQnet      Counter:       4   Parms: SM      U1      
 Computing Diagnostic #     87  oceQsw       Counter:       4   Parms: SM      U1      
 Computing Diagnostic #     84  oceFWflx     Counter:       4   Parms: SM      U1      
 Computing Diagnostic #     85  oceSflux     Counter:       4   Parms: SM      U1      
 Computing Diagnostic #     80  oceTAUX      Counter:       4   Parms: UU      U1      
           Vector  Mate for  oceTAUX      Diagnostic #     81  oceTAUY  exists 
 Computing Diagnostic #     81  oceTAUY      Counter:       4   Parms: VV      U1      
           Vector  Mate for  oceTAUY      Diagnostic #     80  oceTAUX  exists 
 Computing Diagnostic #     26  THETA        Counter:       4   Parms: SMR     MR      
 Computing Diagnostic #     27  SALT         Counter:       4   Parms: SMR     MR      
 Computing Diagnostic #     30  UVEL         Counter:       4   Parms: UUR     MR      
           Vector  Mate for  UVEL         Diagnostic #     31  VVEL     exists 
 Computing Diagnostic #     31  VVEL         Counter:       4   Parms: VVR     MR      
           Vector  Mate for  VVEL         Diagnostic #     30  UVEL     exists 
 Computing Diagnostic #    214  SIarea       Counter:       4   Parms: SM      M1      
 Computing Diagnostic #    217  SIheff       Counter:       4   Parms: SM      M1      
 Computing Diagnostic #    219  SIhsnow      Counter:       4   Parms: SM      M1      
 Computing Diagnostic #     83  sIceLoad     Counter:       4   Parms: SM      U1      
 Computing Diagnostic #    223  SIuice       Counter:       4   Parms: UU      M1      
           Vector  Mate for  SIuice       Diagnostic #    224  SIvice   exists 
 Computing Diagnostic #    224  SIvice       Counter:       4   Parms: VV      M1      
           Vector  Mate for  SIvice       Diagnostic #    223  SIuice   exists 
 Computing Diagnostic #    225  SItaux       Counter:       4   Parms: UU      U1      
           Vector  Mate for  SItaux       Diagnostic #    226  SItauy   exists 
 Computing Diagnostic #    226  SItauy       Counter:       4   Parms: VV      U1      
           Vector  Mate for  SItauy       Diagnostic #    225  SItaux   exists 
 Computing Diagnostic #    285  SIareaN      Counter:       4   Parms: SM      MX      
 Computing Diagnostic #    284  SIheffN      Counter:       4   Parms: SM      MX      
 Computing Diagnostic #    286  SIhsnowN     Counter:       4   Parms: SM      MX      
 Compute Stats, Diag. #    214  SIarea    vol(   0 ): 3.580E+14  Parms: SM      M1      
 Compute Stats, Diag. #    217  SIheff    vol(   0 ): 3.580E+14  Parms: SM      M1      
 Compute Stats, Diag. #    219  SIhsnow   vol(   0 ): 3.580E+14  Parms: SM      M1      
 Compute Stats, Diag. #     83  sIceLoad  vol(   0 ): 3.580E+14  Parms: SM      U1      
 Compute Stats, Diag. #    223  SIuice    vol(   0 ): 3.513E+14  Parms: UU      M1      
 Compute Stats, Diag. #    224  SIvice    vol(   0 ): 3.508E+14  Parms: VV      M1      
 Compute Stats, Diag. #    225  SItaux    vol(   0 ): 3.513E+14  Parms: UU      U1      
 Compute Stats, Diag. #    226  SItauy    vol(   0 ): 3.508E+14  Parms: VV      U1      
 cg2d: Sum(rhs),rhsMax =  -1.30394136106983E+01  2.90053351298468E-01
 Compute Stats, Diag. #    214  SIarea    vol(   0 ): 3.580E+14  Parms: SM      M1      
 Compute Stats, Diag. #    217  SIheff    vol(   0 ): 3.580E+14  Parms: SM      M1      
 Compute Stats, Diag. #    219  SIhsnow   vol(   0 ): 3.580E+14  Parms: SM      M1      
 Compute Stats, Diag. #     83  sIceLoad  vol(   0 ): 3.580E+14  Parms: SM      U1      
 Compute Stats, Diag. #    223  SIuice    vol(   0 ): 3.513E+14  Parms: UU      M1      
 Compute Stats, Diag. #    224  SIvice    vol(   0 ): 3.508E+14  Parms: VV      M1      
 Compute Stats, Diag. #    225  SItaux    vol(   0 ): 3.513E+14  Parms: UU      U1      
 Compute Stats, Diag. #    226  SItauy    vol(   0 ): 3.508E+14  Parms: VV      U1      
 cg2d: Sum(rhs),rhsMax =  -1.31056277186662E+01  2.89976715002854E-01
 Compute Stats, Diag. #    214  SIarea    vol(   0 ): 3.580E+14  Parms: SM      M1      
 Compute Stats, Diag. #    217  SIheff    vol(   0 ): 3.580E+14  Parms: SM      M1      
 Compute Stats, Diag. #    219  SIhsnow   vol(   0 ): 3.580E+14  Parms: SM      M1      
 Compute Stats, Diag. #     83  sIceLoad  vol(   0 ): 3.580E+14  Parms: SM      U1      
 Compute Stats, Diag. #    223  SIuice    vol(   0 ): 3.513E+14  Parms: UU      M1      
 Compute Stats, Diag. #    224  SIvice    vol(   0 ): 3.508E+14  Parms: VV      M1      
 Compute Stats, Diag. #    225  SItaux    vol(   0 ): 3.513E+14  Parms: UU      U1      
 Compute Stats, Diag. #    226  SItauy    vol(   0 ): 3.508E+14  Parms: VV      U1      
 cg2d: Sum(rhs),rhsMax =  -1.31700800063352E+01  2.89900920157160E-01
 Compute Stats, Diag. #    214  SIarea    vol(   0 ): 3.580E+14  Parms: SM      M1      
 Compute Stats, Diag. #    217  SIheff    vol(   0 ): 3.580E+14  Parms: SM      M1      
 Compute Stats, Diag. #    219  SIhsnow   vol(   0 ): 3.580E+14  Parms: SM      M1      
 Compute Stats, Diag. #     83  sIceLoad  vol(   0 ): 3.580E+14  Parms: SM      U1      
 Compute Stats, Diag. #    223  SIuice    vol(   0 ): 3.513E+14  Parms: UU      M1      
 Compute Stats, Diag. #    224  SIvice    vol(   0 ): 3.508E+14  Parms: VV      M1      
 Compute Stats, Diag. #    225  SItaux    vol(   0 ): 3.513E+14  Parms: UU      U1      
 Compute Stats, Diag. #    226  SItauy    vol(   0 ): 3.508E+14  Parms: VV      U1      
 cg2d: Sum(rhs),rhsMax =  -1.32389978047240E+01  2.89826204233635E-01
(PID.TID 0000.0001)      cg2d_init_res =   4.12759236924982E-02
(PID.TID 0000.0001)      cg2d_iters(min,last) =      -1      24
(PID.TID 0000.0001)      cg2d_last_res =   2.56913646187739E-05
(PID.TID 0000.0001) // =======================================================
(PID.TID 0000.0001) // Begin MONITOR dynamic field statistics
(PID.TID 0000.0001) // =======================================================
(PID.TID 0000.0001) %MON time_tsnumber                =                   784
(PID.TID 0000.0001) %MON time_secondsf                =   7.0560000000000E+05
(PID.TID 0000.0001) %MON dynstat_eta_max              =   1.0336005831394E+00
(PID.TID 0000.0001) %MON dynstat_eta_min              =  -1.8480928520899E+00
(PID.TID 0000.0001) %MON dynstat_eta_mean             =   4.1879178311681E-04
(PID.TID 0000.0001) %MON dynstat_eta_sd               =   6.3331928513199E-01
(PID.TID 0000.0001) %MON dynstat_eta_del2             =   5.2087693201219E-05
(PID.TID 0000.0001) %MON dynstat_uvel_max             =   7.1299444017383E-01
(PID.TID 0000.0001) %MON dynstat_uvel_min             =  -7.0408050487641E-01
(PID.TID 0000.0001) %MON dynstat_uvel_mean            =   1.3318511330957E-03
(PID.TID 0000.0001) %MON dynstat_uvel_sd              =   1.8441977093784E-02
(PID.TID 0000.0001) %MON dynstat_uvel_del2            =   7.1177709876613E-06
(PID.TID 0000.0001) %MON dynstat_vvel_max             =   5.4034159287332E-01
(PID.TID 0000.0001) %MON dynstat_vvel_min             =  -8.6043890554511E-01
(PID.TID 0000.0001) %MON dynstat_vvel_mean            =   1.0923955511748E-03
(PID.TID 0000.0001) %MON dynstat_vvel_sd              =   1.9393153345127E-02
(PID.TID 0000.0001) %MON dynstat_vvel_del2            =   7.2039792070643E-06
(PID.TID 0000.0001) %MON dynstat_wvel_max             =   3.3450502622896E-04
(PID.TID 0000.0001) %MON dynstat_wvel_min             =  -8.2566693549360E-04
(PID.TID 0000.0001) %MON dynstat_wvel_mean            =   6.1675831643451E-09
(PID.TID 0000.0001) %MON dynstat_wvel_sd              =   1.7553238751201E-05
(PID.TID 0000.0001) %MON dynstat_wvel_del2            =   1.3549312032212E-08
(PID.TID 0000.0001) %MON dynstat_theta_max            =   3.2033139503168E+01
(PID.TID 0000.0001) %MON dynstat_theta_min            =  -2.0398425075050E+00
(PID.TID 0000.0001) %MON dynstat_theta_mean           =   3.5902951790103E+00
(PID.TID 0000.0001) %MON dynstat_theta_sd             =   4.4368373706789E+00
(PID.TID 0000.0001) %MON dynstat_theta_del2           =   9.1598588413971E-05
(PID.TID 0000.0001) %MON dynstat_salt_max             =   4.0711549196807E+01
(PID.TID 0000.0001) %MON dynstat_salt_min             =   5.4221906533423E+00
(PID.TID 0000.0001) %MON dynstat_salt_mean            =   3.4725568078272E+01
(PID.TID 0000.0001) %MON dynstat_salt_sd              =   3.7707012077845E-01
(PID.TID 0000.0001) %MON dynstat_salt_del2            =   3.5767775572411E-05
(PID.TID 0000.0001) %MON dynstat_sst_max              =   3.2033139503168E+01
(PID.TID 0000.0001) %MON dynstat_sst_min              =  -1.8058069937914E+00
(PID.TID 0000.0001) %MON dynstat_sst_mean             =   1.8483036012666E+01
(PID.TID 0000.0001) %MON dynstat_sst_sd               =   1.0258067230612E+01
(PID.TID 0000.0001) %MON dynstat_sst_del2             =   7.9475530599869E-04
(PID.TID 0000.0001) %MON dynstat_sss_max              =   3.9101896193519E+01
(PID.TID 0000.0001) %MON dynstat_sss_min              =   5.4221906533423E+00
(PID.TID 0000.0001) %MON dynstat_sss_mean             =   3.4700088473407E+01
(PID.TID 0000.0001) %MON dynstat_sss_sd               =   1.1731885285850E+00
(PID.TID 0000.0001) %MON dynstat_sss_del2             =   1.1001716215318E-03
(PID.TID 0000.0001) %MON forcing_qnet_max             =   7.8299664306641E+02
(PID.TID 0000.0001) %MON forcing_qnet_min             =  -8.9508563232422E+02
(PID.TID 0000.0001) %MON forcing_qnet_mean            =  -1.7129345551128E+01
(PID.TID 0000.0001) %MON forcing_qnet_sd              =   2.0067757076339E+02
(PID.TID 0000.0001) %MON forcing_qnet_del2            =   3.1830126286593E-01
(PID.TID 0000.0001) %MON forcing_qsw_max              =   0.0000000000000E+00
(PID.TID 0000.0001) %MON forcing_qsw_min              =  -1.0910696572165E+02
(PID.TID 0000.0001) %MON forcing_qsw_mean             =  -2.1286806004219E+01
(PID.TID 0000.0001) %MON forcing_qsw_sd               =   2.9697676436852E+01
(PID.TID 0000.0001) %MON forcing_qsw_del2             =   2.2154779079507E-02
(PID.TID 0000.0001) %MON forcing_empmr_max            =   2.0909288432449E-03
(PID.TID 0000.0001) %MON forcing_empmr_min            =  -5.5786684155464E-02
(PID.TID 0000.0001) %MON forcing_empmr_mean           =  -2.4925696488582E-06
(PID.TID 0000.0001) %MON forcing_empmr_sd             =   2.5245531561870E-04
(PID.TID 0000.0001) %MON forcing_empmr_del2           =   2.5142680724771E-06
(PID.TID 0000.0001) %MON forcing_fu_max               =   1.0877766013145E+00
(PID.TID 0000.0001) %MON forcing_fu_min               =  -9.9127557873726E-01
(PID.TID 0000.0001) %MON forcing_fu_mean              =   2.2164936877885E-03
(PID.TID 0000.0001) %MON forcing_fu_sd                =   1.0727860685323E-01
(PID.TID 0000.0001) %MON forcing_fu_del2              =   1.3833793779178E-04
(PID.TID 0000.0001) %MON forcing_fv_max               =   9.7057238221169E-01
(PID.TID 0000.0001) %MON forcing_fv_min               =  -1.1586635708809E+00
(PID.TID 0000.0001) %MON forcing_fv_mean              =  -1.0711736612221E-02
(PID.TID 0000.0001) %MON forcing_fv_sd                =   1.0448525318116E-01
(PID.TID 0000.0001) %MON forcing_fv_del2              =   1.2546491910463E-04
(PID.TID 0000.0001) %MON trAdv_CFL_u_max              =   1.2088455785690E-02
(PID.TID 0000.0001) %MON trAdv_CFL_v_max              =   1.2271863820060E-02
(PID.TID 0000.0001) %MON trAdv_CFL_w_max              =   2.0390700434045E-02
(PID.TID 0000.0001) %MON advcfl_uvel_max              =   8.4435128439088E-03
(PID.TID 0000.0001) %MON advcfl_vvel_max              =   1.0861012239519E-02
(PID.TID 0000.0001) %MON advcfl_wvel_max              =   2.4467480160807E-02
(PID.TID 0000.0001) %MON advcfl_W_hf_max              =   2.4548557978436E-02
(PID.TID 0000.0001) %MON pe_b_mean                    =   5.2759885611065E-04
(PID.TID 0000.0001) %MON ke_max                       =   3.7895364245919E-01
(PID.TID 0000.0001) %MON ke_mean                      =   3.4677858260092E-04
(PID.TID 0000.0001) %MON ke_vol                       =   1.3349980260921E+18
(PID.TID 0000.0001) %MON vort_r_min                   =  -1.3193775945807E-05
(PID.TID 0000.0001) %MON vort_r_max                   =   1.8001230163428E-05
(PID.TID 0000.0001) %MON vort_a_mean                  =  -1.9727864647440E-05
(PID.TID 0000.0001) %MON vort_a_sd                    =   7.4542991256037E-05
(PID.TID 0000.0001) %MON vort_p_mean                  =  -2.1760531522855E-05
(PID.TID 0000.0001) %MON vort_p_sd                    =   9.7246066646902E-05
(PID.TID 0000.0001) %MON surfExpan_theta_mean         =  -6.0915026862426E-08
(PID.TID 0000.0001) %MON surfExpan_salt_mean          =   9.1821246050977E-09
(PID.TID 0000.0001) // =======================================================
(PID.TID 0000.0001) // End MONITOR dynamic field statistics
(PID.TID 0000.0001) // =======================================================
(PID.TID 0000.0001) // =======================================================
(PID.TID 0000.0001) // Begin MONITOR SEAICE statistics
(PID.TID 0000.0001) // =======================================================
(PID.TID 0000.0001) %MON seaice_tsnumber              =                   784
(PID.TID 0000.0001) %MON seaice_time_sec              =   7.0560000000000E+05
(PID.TID 0000.0001) %MON seaice_uice_max              =   4.0000000000000E-01
(PID.TID 0000.0001) %MON seaice_uice_min              =  -4.0000000000000E-01
(PID.TID 0000.0001) %MON seaice_uice_mean             =  -8.3054598624025E-03
(PID.TID 0000.0001) %MON seaice_uice_sd               =   1.9802383574176E-01
(PID.TID 0000.0001) %MON seaice_uice_del2             =   2.2931571122150E-04
(PID.TID 0000.0001) %MON seaice_vice_max              =   4.0000000000000E-01
(PID.TID 0000.0001) %MON seaice_vice_min              =  -4.0000000000000E-01
(PID.TID 0000.0001) %MON seaice_vice_mean             =  -2.1960776359499E-02
(PID.TID 0000.0001) %MON seaice_vice_sd               =   2.1302038025672E-01
(PID.TID 0000.0001) %MON seaice_vice_del2             =   2.3932563818061E-04
(PID.TID 0000.0001) %MON seaice_area_max              =   1.0000000000000E+00
(PID.TID 0000.0001) %MON seaice_area_min              =   0.0000000000000E+00
(PID.TID 0000.0001) %MON seaice_area_mean             =   6.5741223789634E-02
(PID.TID 0000.0001) %MON seaice_area_sd               =   2.2960230464821E-01
(PID.TID 0000.0001) %MON seaice_area_del2             =   3.9063882887065E-04
(PID.TID 0000.0001) %MON seaice_heff_max              =   2.4993754460826E+01
(PID.TID 0000.0001) %MON seaice_heff_min              =   0.0000000000000E+00
(PID.TID 0000.0001) %MON seaice_heff_mean             =   2.1251273540147E-01
(PID.TID 0000.0001) %MON seaice_heff_sd               =   1.0664664146363E+00
(PID.TID 0000.0001) %MON seaice_heff_del2             =   3.8394496491303E-03
(PID.TID 0000.0001) %MON seaice_hsnow_max             =   8.2554023816192E+00
(PID.TID 0000.0001) %MON seaice_hsnow_min             =   0.0000000000000E+00
(PID.TID 0000.0001) %MON seaice_hsnow_mean            =   2.4021101672028E-02
(PID.TID 0000.0001) %MON seaice_hsnow_sd              =   1.5612955935399E-01
(PID.TID 0000.0001) %MON seaice_hsnow_del2            =   1.2391228115585E-03
(PID.TID 0000.0001) // =======================================================
(PID.TID 0000.0001) // End MONITOR SEAICE statistics
(PID.TID 0000.0001) // =======================================================
 Computing Diagnostic #     86  oceQnet      Counter:       4   Parms: SM      U1      
 Computing Diagnostic #     87  oceQsw       Counter:       4   Parms: SM      U1      
 Computing Diagnostic #     84  oceFWflx     Counter:       4   Parms: SM      U1      
 Computing Diagnostic #     85  oceSflux     Counter:       4   Parms: SM      U1      
 Computing Diagnostic #     80  oceTAUX      Counter:       4   Parms: UU      U1      
           Vector  Mate for  oceTAUX      Diagnostic #     81  oceTAUY  exists 
 Computing Diagnostic #     81  oceTAUY      Counter:       4   Parms: VV      U1      
           Vector  Mate for  oceTAUY      Diagnostic #     80  oceTAUX  exists 
 Computing Diagnostic #     26  THETA        Counter:       4   Parms: SMR     MR      
 Computing Diagnostic #     27  SALT         Counter:       4   Parms: SMR     MR      
 Computing Diagnostic #     30  UVEL         Counter:       4   Parms: UUR     MR      
           Vector  Mate for  UVEL         Diagnostic #     31  VVEL     exists 
 Computing Diagnostic #     31  VVEL         Counter:       4   Parms: VVR     MR      
           Vector  Mate for  VVEL         Diagnostic #     30  UVEL     exists 
 Computing Diagnostic #    214  SIarea       Counter:       4   Parms: SM      M1      
 Computing Diagnostic #    217  SIheff       Counter:       4   Parms: SM      M1      
 Computing Diagnostic #    219  SIhsnow      Counter:       4   Parms: SM      M1      
 Computing Diagnostic #     83  sIceLoad     Counter:       4   Parms: SM      U1      
 Computing Diagnostic #    223  SIuice       Counter:       4   Parms: UU      M1      
           Vector  Mate for  SIuice       Diagnostic #    224  SIvice   exists 
 Computing Diagnostic #    224  SIvice       Counter:       4   Parms: VV      M1      
           Vector  Mate for  SIvice       Diagnostic #    223  SIuice   exists 
 Computing Diagnostic #    225  SItaux       Counter:       4   Parms: UU      U1      
           Vector  Mate for  SItaux       Diagnostic #    226  SItauy   exists 
 Computing Diagnostic #    226  SItauy       Counter:       4   Parms: VV      U1      
           Vector  Mate for  SItauy       Diagnostic #    225  SItaux   exists 
 Computing Diagnostic #    285  SIareaN      Counter:       4   Parms: SM      MX      
 Computing Diagnostic #    284  SIheffN      Counter:       4   Parms: SM      MX      
 Computing Diagnostic #    286  SIhsnowN     Counter:       4   Parms: SM      MX      
 Compute Stats, Diag. #    214  SIarea    vol(   0 ): 3.580E+14  Parms: SM      M1      
 Compute Stats, Diag. #    217  SIheff    vol(   0 ): 3.580E+14  Parms: SM      M1      
 Compute Stats, Diag. #    219  SIhsnow   vol(   0 ): 3.580E+14  Parms: SM      M1      
 Compute Stats, Diag. #     83  sIceLoad  vol(   0 ): 3.580E+14  Parms: SM      U1      
 Compute Stats, Diag. #    223  SIuice    vol(   0 ): 3.513E+14  Parms: UU      M1      
 Compute Stats, Diag. #    224  SIvice    vol(   0 ): 3.508E+14  Parms: VV      M1      
 Compute Stats, Diag. #    225  SItaux    vol(   0 ): 3.513E+14  Parms: UU      U1      
 Compute Stats, Diag. #    226  SItauy    vol(   0 ): 3.508E+14  Parms: VV      U1      
 cg2d: Sum(rhs),rhsMax =  -1.33052477704829E+01  2.89753073933912E-01
 Compute Stats, Diag. #    214  SIarea    vol(   0 ): 3.580E+14  Parms: SM      M1      
 Compute Stats, Diag. #    217  SIheff    vol(   0 ): 3.580E+14  Parms: SM      M1      
 Compute Stats, Diag. #    219  SIhsnow   vol(   0 ): 3.580E+14  Parms: SM      M1      
 Compute Stats, Diag. #     83  sIceLoad  vol(   0 ): 3.580E+14  Parms: SM      U1      
 Compute Stats, Diag. #    223  SIuice    vol(   0 ): 3.513E+14  Parms: UU      M1      
 Compute Stats, Diag. #    224  SIvice    vol(   0 ): 3.508E+14  Parms: VV      M1      
 Compute Stats, Diag. #    225  SItaux    vol(   0 ): 3.513E+14  Parms: UU      U1      
 Compute Stats, Diag. #    226  SItauy    vol(   0 ): 3.508E+14  Parms: VV      U1      
 cg2d: Sum(rhs),rhsMax =  -1.33634024448394E+01  2.89682134178979E-01
 Compute Stats, Diag. #    214  SIarea    vol(   0 ): 3.580E+14  Parms: SM      M1      
 Compute Stats, Diag. #    217  SIheff    vol(   0 ): 3.580E+14  Parms: SM      M1      
 Compute Stats, Diag. #    219  SIhsnow   vol(   0 ): 3.580E+14  Parms: SM      M1      
 Compute Stats, Diag. #     83  sIceLoad  vol(   0 ): 3.580E+14  Parms: SM      U1      
 Compute Stats, Diag. #    223  SIuice    vol(   0 ): 3.513E+14  Parms: UU      M1      
 Compute Stats, Diag. #    224  SIvice    vol(   0 ): 3.508E+14  Parms: VV      M1      
 Compute Stats, Diag. #    225  SItaux    vol(   0 ): 3.513E+14  Parms: UU      U1      
 Compute Stats, Diag. #    226  SItauy    vol(   0 ): 3.508E+14  Parms: VV      U1      
 cg2d: Sum(rhs),rhsMax =  -1.34231837859748E+01  2.89615064719043E-01
 Compute Stats, Diag. #    214  SIarea    vol(   0 ): 3.580E+14  Parms: SM      M1      
 Compute Stats, Diag. #    217  SIheff    vol(   0 ): 3.580E+14  Parms: SM      M1      
 Compute Stats, Diag. #    219  SIhsnow   vol(   0 ): 3.580E+14  Parms: SM      M1      
 Compute Stats, Diag. #     83  sIceLoad  vol(   0 ): 3.580E+14  Parms: SM      U1      
 Compute Stats, Diag. #    223  SIuice    vol(   0 ): 3.513E+14  Parms: UU      M1      
 Compute Stats, Diag. #    224  SIvice    vol(   0 ): 3.508E+14  Parms: VV      M1      
 Compute Stats, Diag. #    225  SItaux    vol(   0 ): 3.513E+14  Parms: UU      U1      
 Compute Stats, Diag. #    226  SItauy    vol(   0 ): 3.508E+14  Parms: VV      U1      
 cg2d: Sum(rhs),rhsMax =  -1.34884325595812E+01  2.89555638078082E-01
 Computing Diagnostic #     86  oceQnet      Counter:       4   Parms: SM      U1      
 Computing Diagnostic #     87  oceQsw       Counter:       4   Parms: SM      U1      
 Computing Diagnostic #     84  oceFWflx     Counter:       4   Parms: SM      U1      
 Computing Diagnostic #     85  oceSflux     Counter:       4   Parms: SM      U1      
 Computing Diagnostic #     80  oceTAUX      Counter:       4   Parms: UU      U1      
           Vector  Mate for  oceTAUX      Diagnostic #     81  oceTAUY  exists 
 Computing Diagnostic #     81  oceTAUY      Counter:       4   Parms: VV      U1      
           Vector  Mate for  oceTAUY      Diagnostic #     80  oceTAUX  exists 
 Computing Diagnostic #     26  THETA        Counter:       4   Parms: SMR     MR      
 Computing Diagnostic #     27  SALT         Counter:       4   Parms: SMR     MR      
 Computing Diagnostic #     30  UVEL         Counter:       4   Parms: UUR     MR      
           Vector  Mate for  UVEL         Diagnostic #     31  VVEL     exists 
 Computing Diagnostic #     31  VVEL         Counter:       4   Parms: VVR     MR      
           Vector  Mate for  VVEL         Diagnostic #     30  UVEL     exists 
 Computing Diagnostic #    214  SIarea       Counter:       4   Parms: SM      M1      
 Computing Diagnostic #    217  SIheff       Counter:       4   Parms: SM      M1      
 Computing Diagnostic #    219  SIhsnow      Counter:       4   Parms: SM      M1      
 Computing Diagnostic #     83  sIceLoad     Counter:       4   Parms: SM      U1      
 Computing Diagnostic #    223  SIuice       Counter:       4   Parms: UU      M1      
           Vector  Mate for  SIuice       Diagnostic #    224  SIvice   exists 
 Computing Diagnostic #    224  SIvice       Counter:       4   Parms: VV      M1      
           Vector  Mate for  SIvice       Diagnostic #    223  SIuice   exists 
 Computing Diagnostic #    225  SItaux       Counter:       4   Parms: UU      U1      
           Vector  Mate for  SItaux       Diagnostic #    226  SItauy   exists 
 Computing Diagnostic #    226  SItauy       Counter:       4   Parms: VV      U1      
           Vector  Mate for  SItauy       Diagnostic #    225  SItaux   exists 
 Computing Diagnostic #    285  SIareaN      Counter:       4   Parms: SM      MX      
 Computing Diagnostic #    284  SIheffN      Counter:       4   Parms: SM      MX      
 Computing Diagnostic #    286  SIhsnowN     Counter:       4   Parms: SM      MX      
 Compute Stats, Diag. #    214  SIarea    vol(   0 ): 3.580E+14  Parms: SM      M1      
 Compute Stats, Diag. #    217  SIheff    vol(   0 ): 3.580E+14  Parms: SM      M1      
 Compute Stats, Diag. #    219  SIhsnow   vol(   0 ): 3.580E+14  Parms: SM      M1      
 Compute Stats, Diag. #     83  sIceLoad  vol(   0 ): 3.580E+14  Parms: SM      U1      
 Compute Stats, Diag. #    223  SIuice    vol(   0 ): 3.513E+14  Parms: UU      M1      
 Compute Stats, Diag. #    224  SIvice    vol(   0 ): 3.508E+14  Parms: VV      M1      
 Compute Stats, Diag. #    225  SItaux    vol(   0 ): 3.513E+14  Parms: UU      U1      
 Compute Stats, Diag. #    226  SItauy    vol(   0 ): 3.508E+14  Parms: VV      U1      
 cg2d: Sum(rhs),rhsMax =  -1.35545386206594E+01  2.89502086736845E-01
 Compute Stats, Diag. #    214  SIarea    vol(   0 ): 3.580E+14  Parms: SM      M1      
 Compute Stats, Diag. #    217  SIheff    vol(   0 ): 3.580E+14  Parms: SM      M1      
 Compute Stats, Diag. #    219  SIhsnow   vol(   0 ): 3.580E+14  Parms: SM      M1      
 Compute Stats, Diag. #     83  sIceLoad  vol(   0 ): 3.580E+14  Parms: SM      U1      
 Compute Stats, Diag. #    223  SIuice    vol(   0 ): 3.513E+14  Parms: UU      M1      
 Compute Stats, Diag. #    224  SIvice    vol(   0 ): 3.508E+14  Parms: VV      M1      
 Compute Stats, Diag. #    225  SItaux    vol(   0 ): 3.513E+14  Parms: UU      U1      
 Compute Stats, Diag. #    226  SItauy    vol(   0 ): 3.508E+14  Parms: VV      U1      
 cg2d: Sum(rhs),rhsMax =  -1.36250569529695E+01  2.89454308092024E-01
 Compute Stats, Diag. #    214  SIarea    vol(   0 ): 3.580E+14  Parms: SM      M1      
 Compute Stats, Diag. #    217  SIheff    vol(   0 ): 3.580E+14  Parms: SM      M1      
 Compute Stats, Diag. #    219  SIhsnow   vol(   0 ): 3.580E+14  Parms: SM      M1      
 Compute Stats, Diag. #     83  sIceLoad  vol(   0 ): 3.580E+14  Parms: SM      U1      
 Compute Stats, Diag. #    223  SIuice    vol(   0 ): 3.513E+14  Parms: UU      M1      
 Compute Stats, Diag. #    224  SIvice    vol(   0 ): 3.508E+14  Parms: VV      M1      
 Compute Stats, Diag. #    225  SItaux    vol(   0 ): 3.513E+14  Parms: UU      U1      
 Compute Stats, Diag. #    226  SItauy    vol(   0 ): 3.508E+14  Parms: VV      U1      
 cg2d: Sum(rhs),rhsMax =  -1.36983908852417E+01  2.89412721919721E-01
 Compute Stats, Diag. #    214  SIarea    vol(   0 ): 3.580E+14  Parms: SM      M1      
 Compute Stats, Diag. #    217  SIheff    vol(   0 ): 3.580E+14  Parms: SM      M1      
 Compute Stats, Diag. #    219  SIhsnow   vol(   0 ): 3.580E+14  Parms: SM      M1      
 Compute Stats, Diag. #     83  sIceLoad  vol(   0 ): 3.580E+14  Parms: SM      U1      
 Compute Stats, Diag. #    223  SIuice    vol(   0 ): 3.513E+14  Parms: UU      M1      
 Compute Stats, Diag. #    224  SIvice    vol(   0 ): 3.508E+14  Parms: VV      M1      
 Compute Stats, Diag. #    225  SItaux    vol(   0 ): 3.513E+14  Parms: UU      U1      
 Compute Stats, Diag. #    226  SItauy    vol(   0 ): 3.508E+14  Parms: VV      U1      
 cg2d: Sum(rhs),rhsMax =  -1.37824450788938E+01  2.89377367419162E-01
(PID.TID 0000.0001)      cg2d_init_res =   4.12685182930513E-02
(PID.TID 0000.0001)      cg2d_iters(min,last) =      -1      24
(PID.TID 0000.0001)      cg2d_last_res =   2.55664342132175E-05
(PID.TID 0000.0001) // =======================================================
(PID.TID 0000.0001) // Begin MONITOR dynamic field statistics
(PID.TID 0000.0001) // =======================================================
(PID.TID 0000.0001) %MON time_tsnumber                =                   792
(PID.TID 0000.0001) %MON time_secondsf                =   7.1280000000000E+05
(PID.TID 0000.0001) %MON dynstat_eta_max              =   1.0325913039227E+00
(PID.TID 0000.0001) %MON dynstat_eta_min              =  -1.8459142461937E+00
(PID.TID 0000.0001) %MON dynstat_eta_mean             =   4.3598275605419E-04
(PID.TID 0000.0001) %MON dynstat_eta_sd               =   6.3293619688754E-01
(PID.TID 0000.0001) %MON dynstat_eta_del2             =   5.2160699047199E-05
(PID.TID 0000.0001) %MON dynstat_uvel_max             =   7.1010774272937E-01
(PID.TID 0000.0001) %MON dynstat_uvel_min             =  -7.0811248598357E-01
(PID.TID 0000.0001) %MON dynstat_uvel_mean            =   1.3288980720220E-03
(PID.TID 0000.0001) %MON dynstat_uvel_sd              =   1.8413210182574E-02
(PID.TID 0000.0001) %MON dynstat_uvel_del2            =   7.1196921404216E-06
(PID.TID 0000.0001) %MON dynstat_vvel_max             =   5.4117088678388E-01
(PID.TID 0000.0001) %MON dynstat_vvel_min             =  -8.6043659816445E-01
(PID.TID 0000.0001) %MON dynstat_vvel_mean            =   1.0882857262207E-03
(PID.TID 0000.0001) %MON dynstat_vvel_sd              =   1.9410178368200E-02
(PID.TID 0000.0001) %MON dynstat_vvel_del2            =   7.1944443287724E-06
(PID.TID 0000.0001) %MON dynstat_wvel_max             =   3.2085073240842E-04
(PID.TID 0000.0001) %MON dynstat_wvel_min             =  -8.2113953833095E-04
(PID.TID 0000.0001) %MON dynstat_wvel_mean            =   5.1328052693503E-09
(PID.TID 0000.0001) %MON dynstat_wvel_sd              =   1.7479223300607E-05
(PID.TID 0000.0001) %MON dynstat_wvel_del2            =   1.3527643330029E-08
(PID.TID 0000.0001) %MON dynstat_theta_max            =   3.2052660012242E+01
(PID.TID 0000.0001) %MON dynstat_theta_min            =  -2.0398307723804E+00
(PID.TID 0000.0001) %MON dynstat_theta_mean           =   3.5902962999950E+00
(PID.TID 0000.0001) %MON dynstat_theta_sd             =   4.4368635513075E+00
(PID.TID 0000.0001) %MON dynstat_theta_del2           =   9.1542618687758E-05
(PID.TID 0000.0001) %MON dynstat_salt_max             =   4.0711548641717E+01
(PID.TID 0000.0001) %MON dynstat_salt_min             =   5.5054349038032E+00
(PID.TID 0000.0001) %MON dynstat_salt_mean            =   3.4725567936685E+01
(PID.TID 0000.0001) %MON dynstat_salt_sd              =   3.7707093288329E-01
(PID.TID 0000.0001) %MON dynstat_salt_del2            =   3.5635412730031E-05
(PID.TID 0000.0001) %MON dynstat_sst_max              =   3.2052660012242E+01
(PID.TID 0000.0001) %MON dynstat_sst_min              =  -1.8096390770846E+00
(PID.TID 0000.0001) %MON dynstat_sst_mean             =   1.8482272658170E+01
(PID.TID 0000.0001) %MON dynstat_sst_sd               =   1.0258899187458E+01
(PID.TID 0000.0001) %MON dynstat_sst_del2             =   7.9576512378038E-04
(PID.TID 0000.0001) %MON dynstat_sss_max              =   3.9101760991048E+01
(PID.TID 0000.0001) %MON dynstat_sss_min              =   5.5054349038032E+00
(PID.TID 0000.0001) %MON dynstat_sss_mean             =   3.4700108712937E+01
(PID.TID 0000.0001) %MON dynstat_sss_sd               =   1.1733893716382E+00
(PID.TID 0000.0001) %MON dynstat_sss_del2             =   1.0921552374014E-03
(PID.TID 0000.0001) %MON forcing_qnet_max             =   7.7812316894531E+02
(PID.TID 0000.0001) %MON forcing_qnet_min             =  -8.8915118408203E+02
(PID.TID 0000.0001) %MON forcing_qnet_mean            =   7.4939111275033E+00
(PID.TID 0000.0001) %MON forcing_qnet_sd              =   1.8178516008984E+02
(PID.TID 0000.0001) %MON forcing_qnet_del2            =   3.1499840224610E-01
(PID.TID 0000.0001) %MON forcing_qsw_max              =   0.0000000000000E+00
(PID.TID 0000.0001) %MON forcing_qsw_min              =  -1.0858633827387E+02
(PID.TID 0000.0001) %MON forcing_qsw_mean             =  -1.8677972643040E+01
(PID.TID 0000.0001) %MON forcing_qsw_sd               =   2.7255274252252E+01
(PID.TID 0000.0001) %MON forcing_qsw_del2             =   2.2925453702759E-02
(PID.TID 0000.0001) %MON forcing_empmr_max            =   1.7705621430650E-03
(PID.TID 0000.0001) %MON forcing_empmr_min            =  -5.9392251074314E-02
(PID.TID 0000.0001) %MON forcing_empmr_mean           =  -3.0400119686361E-06
(PID.TID 0000.0001) %MON forcing_empmr_sd             =   2.6417383731159E-04
(PID.TID 0000.0001) %MON forcing_empmr_del2           =   2.7801336665909E-06
(PID.TID 0000.0001) %MON forcing_fu_max               =   1.2039716243744E+00
(PID.TID 0000.0001) %MON forcing_fu_min               =  -9.8943588137627E-01
(PID.TID 0000.0001) %MON forcing_fu_mean              =   2.2176125522478E-03
(PID.TID 0000.0001) %MON forcing_fu_sd                =   1.0992233688219E-01
(PID.TID 0000.0001) %MON forcing_fu_del2              =   1.4336313130217E-04
(PID.TID 0000.0001) %MON forcing_fv_max               =   1.0016243457794E+00
(PID.TID 0000.0001) %MON forcing_fv_min               =  -1.1488920450211E+00
(PID.TID 0000.0001) %MON forcing_fv_mean              =  -1.1097269949804E-02
(PID.TID 0000.0001) %MON forcing_fv_sd                =   1.0439380096150E-01
(PID.TID 0000.0001) %MON forcing_fv_del2              =   1.2541235841111E-04
(PID.TID 0000.0001) %MON trAdv_CFL_u_max              =   1.1959824729758E-02
(PID.TID 0000.0001) %MON trAdv_CFL_v_max              =   1.2257769478551E-02
(PID.TID 0000.0001) %MON trAdv_CFL_w_max              =   2.0599961966757E-02
(PID.TID 0000.0001) %MON advcfl_uvel_max              =   8.4069307367202E-03
(PID.TID 0000.0001) %MON advcfl_vvel_max              =   1.0877681271538E-02
(PID.TID 0000.0001) %MON advcfl_wvel_max              =   2.4954944546155E-02
(PID.TID 0000.0001) %MON advcfl_W_hf_max              =   2.5037816066075E-02
(PID.TID 0000.0001) %MON pe_b_mean                    =   5.2696078828647E-04
(PID.TID 0000.0001) %MON ke_max                       =   3.7785349022919E-01
(PID.TID 0000.0001) %MON ke_mean                      =   3.4657791901595E-04
(PID.TID 0000.0001) %MON ke_vol                       =   1.3349980320752E+18
(PID.TID 0000.0001) %MON vort_r_min                   =  -1.3353287036241E-05
(PID.TID 0000.0001) %MON vort_r_max                   =   1.8040645723672E-05
(PID.TID 0000.0001) %MON vort_a_mean                  =  -1.9727864647440E-05
(PID.TID 0000.0001) %MON vort_a_sd                    =   7.4542991505582E-05
(PID.TID 0000.0001) %MON vort_p_mean                  =  -2.1760531417708E-05
(PID.TID 0000.0001) %MON vort_p_sd                    =   9.7246140362420E-05
(PID.TID 0000.0001) %MON surfExpan_theta_mean         =  -8.9697100524210E-08
(PID.TID 0000.0001) %MON surfExpan_salt_mean          =   7.6010386365012E-09
(PID.TID 0000.0001) // =======================================================
(PID.TID 0000.0001) // End MONITOR dynamic field statistics
(PID.TID 0000.0001) // =======================================================
(PID.TID 0000.0001) // =======================================================
(PID.TID 0000.0001) // Begin MONITOR SEAICE statistics
(PID.TID 0000.0001) // =======================================================
(PID.TID 0000.0001) %MON seaice_tsnumber              =                   792
(PID.TID 0000.0001) %MON seaice_time_sec              =   7.1280000000000E+05
(PID.TID 0000.0001) %MON seaice_uice_max              =   4.0000000000000E-01
(PID.TID 0000.0001) %MON seaice_uice_min              =  -4.0000000000000E-01
(PID.TID 0000.0001) %MON seaice_uice_mean             =  -8.3054598624025E-03
(PID.TID 0000.0001) %MON seaice_uice_sd               =   1.9802383574176E-01
(PID.TID 0000.0001) %MON seaice_uice_del2             =   2.2931571122150E-04
(PID.TID 0000.0001) %MON seaice_vice_max              =   4.0000000000000E-01
(PID.TID 0000.0001) %MON seaice_vice_min              =  -4.0000000000000E-01
(PID.TID 0000.0001) %MON seaice_vice_mean             =  -2.1960776359499E-02
(PID.TID 0000.0001) %MON seaice_vice_sd               =   2.1302038025672E-01
(PID.TID 0000.0001) %MON seaice_vice_del2             =   2.3932563818061E-04
(PID.TID 0000.0001) %MON seaice_area_max              =   1.0000000000000E+00
(PID.TID 0000.0001) %MON seaice_area_min              =   0.0000000000000E+00
(PID.TID 0000.0001) %MON seaice_area_mean             =   6.5700569573634E-02
(PID.TID 0000.0001) %MON seaice_area_sd               =   2.2953316719621E-01
(PID.TID 0000.0001) %MON seaice_area_del2             =   3.9012200757382E-04
(PID.TID 0000.0001) %MON seaice_heff_max              =   2.4991868533427E+01
(PID.TID 0000.0001) %MON seaice_heff_min              =   0.0000000000000E+00
(PID.TID 0000.0001) %MON seaice_heff_mean             =   2.1247857007302E-01
(PID.TID 0000.0001) %MON seaice_heff_sd               =   1.0664380769128E+00
(PID.TID 0000.0001) %MON seaice_heff_del2             =   3.8387921542912E-03
(PID.TID 0000.0001) %MON seaice_hsnow_max             =   8.2547811508121E+00
(PID.TID 0000.0001) %MON seaice_hsnow_min             =   0.0000000000000E+00
(PID.TID 0000.0001) %MON seaice_hsnow_mean            =   2.4014575172503E-02
(PID.TID 0000.0001) %MON seaice_hsnow_sd              =   1.5611880552172E-01
(PID.TID 0000.0001) %MON seaice_hsnow_del2            =   1.2390167922943E-03
(PID.TID 0000.0001) // =======================================================
(PID.TID 0000.0001) // End MONITOR SEAICE statistics
(PID.TID 0000.0001) // =======================================================
 Computing Diagnostic #     86  oceQnet      Counter:       4   Parms: SM      U1      
 Computing Diagnostic #     87  oceQsw       Counter:       4   Parms: SM      U1      
 Computing Diagnostic #     84  oceFWflx     Counter:       4   Parms: SM      U1      
 Computing Diagnostic #     85  oceSflux     Counter:       4   Parms: SM      U1      
 Computing Diagnostic #     80  oceTAUX      Counter:       4   Parms: UU      U1      
           Vector  Mate for  oceTAUX      Diagnostic #     81  oceTAUY  exists 
 Computing Diagnostic #     81  oceTAUY      Counter:       4   Parms: VV      U1      
           Vector  Mate for  oceTAUY      Diagnostic #     80  oceTAUX  exists 
 Computing Diagnostic #     26  THETA        Counter:       4   Parms: SMR     MR      
 Computing Diagnostic #     27  SALT         Counter:       4   Parms: SMR     MR      
 Computing Diagnostic #     30  UVEL         Counter:       4   Parms: UUR     MR      
           Vector  Mate for  UVEL         Diagnostic #     31  VVEL     exists 
 Computing Diagnostic #     31  VVEL         Counter:       4   Parms: VVR     MR      
           Vector  Mate for  VVEL         Diagnostic #     30  UVEL     exists 
 Computing Diagnostic #    214  SIarea       Counter:       4   Parms: SM      M1      
 Computing Diagnostic #    217  SIheff       Counter:       4   Parms: SM      M1      
 Computing Diagnostic #    219  SIhsnow      Counter:       4   Parms: SM      M1      
 Computing Diagnostic #     83  sIceLoad     Counter:       4   Parms: SM      U1      
 Computing Diagnostic #    223  SIuice       Counter:       4   Parms: UU      M1      
           Vector  Mate for  SIuice       Diagnostic #    224  SIvice   exists 
 Computing Diagnostic #    224  SIvice       Counter:       4   Parms: VV      M1      
           Vector  Mate for  SIvice       Diagnostic #    223  SIuice   exists 
 Computing Diagnostic #    225  SItaux       Counter:       4   Parms: UU      U1      
           Vector  Mate for  SItaux       Diagnostic #    226  SItauy   exists 
 Computing Diagnostic #    226  SItauy       Counter:       4   Parms: VV      U1      
           Vector  Mate for  SItauy       Diagnostic #    225  SItaux   exists 
 Computing Diagnostic #    285  SIareaN      Counter:       4   Parms: SM      MX      
 Computing Diagnostic #    284  SIheffN      Counter:       4   Parms: SM      MX      
 Computing Diagnostic #    286  SIhsnowN     Counter:       4   Parms: SM      MX      
 Compute Stats, Diag. #    214  SIarea    vol(   0 ): 3.580E+14  Parms: SM      M1      
 Compute Stats, Diag. #    217  SIheff    vol(   0 ): 3.580E+14  Parms: SM      M1      
 Compute Stats, Diag. #    219  SIhsnow   vol(   0 ): 3.580E+14  Parms: SM      M1      
 Compute Stats, Diag. #     83  sIceLoad  vol(   0 ): 3.580E+14  Parms: SM      U1      
 Compute Stats, Diag. #    223  SIuice    vol(   0 ): 3.513E+14  Parms: UU      M1      
 Compute Stats, Diag. #    224  SIvice    vol(   0 ): 3.508E+14  Parms: VV      M1      
 Compute Stats, Diag. #    225  SItaux    vol(   0 ): 3.513E+14  Parms: UU      U1      
 Compute Stats, Diag. #    226  SItauy    vol(   0 ): 3.508E+14  Parms: VV      U1      
 cg2d: Sum(rhs),rhsMax =  -1.38685235542314E+01  2.89348179796210E-01
 Compute Stats, Diag. #    214  SIarea    vol(   0 ): 3.580E+14  Parms: SM      M1      
 Compute Stats, Diag. #    217  SIheff    vol(   0 ): 3.580E+14  Parms: SM      M1      
 Compute Stats, Diag. #    219  SIhsnow   vol(   0 ): 3.580E+14  Parms: SM      M1      
 Compute Stats, Diag. #     83  sIceLoad  vol(   0 ): 3.580E+14  Parms: SM      U1      
 Compute Stats, Diag. #    223  SIuice    vol(   0 ): 3.513E+14  Parms: UU      M1      
 Compute Stats, Diag. #    224  SIvice    vol(   0 ): 3.508E+14  Parms: VV      M1      
 Compute Stats, Diag. #    225  SItaux    vol(   0 ): 3.513E+14  Parms: UU      U1      
 Compute Stats, Diag. #    226  SItauy    vol(   0 ): 3.508E+14  Parms: VV      U1      
 cg2d: Sum(rhs),rhsMax =  -1.39590968118623E+01  2.89324318439284E-01
 Compute Stats, Diag. #    214  SIarea    vol(   0 ): 3.580E+14  Parms: SM      M1      
 Compute Stats, Diag. #    217  SIheff    vol(   0 ): 3.580E+14  Parms: SM      M1      
 Compute Stats, Diag. #    219  SIhsnow   vol(   0 ): 3.580E+14  Parms: SM      M1      
 Compute Stats, Diag. #     83  sIceLoad  vol(   0 ): 3.580E+14  Parms: SM      U1      
 Compute Stats, Diag. #    223  SIuice    vol(   0 ): 3.513E+14  Parms: UU      M1      
 Compute Stats, Diag. #    224  SIvice    vol(   0 ): 3.508E+14  Parms: VV      M1      
 Compute Stats, Diag. #    225  SItaux    vol(   0 ): 3.513E+14  Parms: UU      U1      
 Compute Stats, Diag. #    226  SItauy    vol(   0 ): 3.508E+14  Parms: VV      U1      
 cg2d: Sum(rhs),rhsMax =  -1.40540696433800E+01  2.89305933157567E-01
 Compute Stats, Diag. #    214  SIarea    vol(   0 ): 3.580E+14  Parms: SM      M1      
 Compute Stats, Diag. #    217  SIheff    vol(   0 ): 3.580E+14  Parms: SM      M1      
 Compute Stats, Diag. #    219  SIhsnow   vol(   0 ): 3.580E+14  Parms: SM      M1      
 Compute Stats, Diag. #     83  sIceLoad  vol(   0 ): 3.580E+14  Parms: SM      U1      
 Compute Stats, Diag. #    223  SIuice    vol(   0 ): 3.513E+14  Parms: UU      M1      
 Compute Stats, Diag. #    224  SIvice    vol(   0 ): 3.508E+14  Parms: VV      M1      
 Compute Stats, Diag. #    225  SItaux    vol(   0 ): 3.513E+14  Parms: UU      U1      
 Compute Stats, Diag. #    226  SItauy    vol(   0 ): 3.508E+14  Parms: VV      U1      
 cg2d: Sum(rhs),rhsMax =  -1.41504170560781E+01  2.89292971683099E-01
 Computing Diagnostic #     86  oceQnet      Counter:       4   Parms: SM      U1      
 Computing Diagnostic #     87  oceQsw       Counter:       4   Parms: SM      U1      
 Computing Diagnostic #     84  oceFWflx     Counter:       4   Parms: SM      U1      
 Computing Diagnostic #     85  oceSflux     Counter:       4   Parms: SM      U1      
 Computing Diagnostic #     80  oceTAUX      Counter:       4   Parms: UU      U1      
           Vector  Mate for  oceTAUX      Diagnostic #     81  oceTAUY  exists 
 Computing Diagnostic #     81  oceTAUY      Counter:       4   Parms: VV      U1      
           Vector  Mate for  oceTAUY      Diagnostic #     80  oceTAUX  exists 
 Computing Diagnostic #     26  THETA        Counter:       4   Parms: SMR     MR      
 Computing Diagnostic #     27  SALT         Counter:       4   Parms: SMR     MR      
 Computing Diagnostic #     30  UVEL         Counter:       4   Parms: UUR     MR      
           Vector  Mate for  UVEL         Diagnostic #     31  VVEL     exists 
 Computing Diagnostic #     31  VVEL         Counter:       4   Parms: VVR     MR      
           Vector  Mate for  VVEL         Diagnostic #     30  UVEL     exists 
 Computing Diagnostic #    214  SIarea       Counter:       4   Parms: SM      M1      
 Computing Diagnostic #    217  SIheff       Counter:       4   Parms: SM      M1      
 Computing Diagnostic #    219  SIhsnow      Counter:       4   Parms: SM      M1      
 Computing Diagnostic #     83  sIceLoad     Counter:       4   Parms: SM      U1      
 Computing Diagnostic #    223  SIuice       Counter:       4   Parms: UU      M1      
           Vector  Mate for  SIuice       Diagnostic #    224  SIvice   exists 
 Computing Diagnostic #    224  SIvice       Counter:       4   Parms: VV      M1      
           Vector  Mate for  SIvice       Diagnostic #    223  SIuice   exists 
 Computing Diagnostic #    225  SItaux       Counter:       4   Parms: UU      U1      
           Vector  Mate for  SItaux       Diagnostic #    226  SItauy   exists 
 Computing Diagnostic #    226  SItauy       Counter:       4   Parms: VV      U1      
           Vector  Mate for  SItauy       Diagnostic #    225  SItaux   exists 
 Computing Diagnostic #    285  SIareaN      Counter:       4   Parms: SM      MX      
 Computing Diagnostic #    284  SIheffN      Counter:       4   Parms: SM      MX      
 Computing Diagnostic #    286  SIhsnowN     Counter:       4   Parms: SM      MX      
 Compute Stats, Diag. #    214  SIarea    vol(   0 ): 3.580E+14  Parms: SM      M1      
 Compute Stats, Diag. #    217  SIheff    vol(   0 ): 3.580E+14  Parms: SM      M1      
 Compute Stats, Diag. #    219  SIhsnow   vol(   0 ): 3.580E+14  Parms: SM      M1      
 Compute Stats, Diag. #     83  sIceLoad  vol(   0 ): 3.580E+14  Parms: SM      U1      
 Compute Stats, Diag. #    223  SIuice    vol(   0 ): 3.513E+14  Parms: UU      M1      
 Compute Stats, Diag. #    224  SIvice    vol(   0 ): 3.508E+14  Parms: VV      M1      
 Compute Stats, Diag. #    225  SItaux    vol(   0 ): 3.513E+14  Parms: UU      U1      
 Compute Stats, Diag. #    226  SItauy    vol(   0 ): 3.508E+14  Parms: VV      U1      
 cg2d: Sum(rhs),rhsMax =  -1.42527833604540E+01  2.89284995021336E-01
 Compute Stats, Diag. #    214  SIarea    vol(   0 ): 3.580E+14  Parms: SM      M1      
 Compute Stats, Diag. #    217  SIheff    vol(   0 ): 3.580E+14  Parms: SM      M1      
 Compute Stats, Diag. #    219  SIhsnow   vol(   0 ): 3.580E+14  Parms: SM      M1      
 Compute Stats, Diag. #     83  sIceLoad  vol(   0 ): 3.580E+14  Parms: SM      U1      
 Compute Stats, Diag. #    223  SIuice    vol(   0 ): 3.513E+14  Parms: UU      M1      
 Compute Stats, Diag. #    224  SIvice    vol(   0 ): 3.508E+14  Parms: VV      M1      
 Compute Stats, Diag. #    225  SItaux    vol(   0 ): 3.513E+14  Parms: UU      U1      
 Compute Stats, Diag. #    226  SItauy    vol(   0 ): 3.508E+14  Parms: VV      U1      
 cg2d: Sum(rhs),rhsMax =  -1.43629956553289E+01  2.89282231987625E-01
 Compute Stats, Diag. #    214  SIarea    vol(   0 ): 3.580E+14  Parms: SM      M1      
 Compute Stats, Diag. #    217  SIheff    vol(   0 ): 3.580E+14  Parms: SM      M1      
 Compute Stats, Diag. #    219  SIhsnow   vol(   0 ): 3.580E+14  Parms: SM      M1      
 Compute Stats, Diag. #     83  sIceLoad  vol(   0 ): 3.580E+14  Parms: SM      U1      
 Compute Stats, Diag. #    223  SIuice    vol(   0 ): 3.513E+14  Parms: UU      M1      
 Compute Stats, Diag. #    224  SIvice    vol(   0 ): 3.508E+14  Parms: VV      M1      
 Compute Stats, Diag. #    225  SItaux    vol(   0 ): 3.513E+14  Parms: UU      U1      
 Compute Stats, Diag. #    226  SItauy    vol(   0 ): 3.508E+14  Parms: VV      U1      
 cg2d: Sum(rhs),rhsMax =  -1.44711103261781E+01  2.89282481016934E-01
 Compute Stats, Diag. #    214  SIarea    vol(   0 ): 3.580E+14  Parms: SM      M1      
 Compute Stats, Diag. #    217  SIheff    vol(   0 ): 3.580E+14  Parms: SM      M1      
 Compute Stats, Diag. #    219  SIhsnow   vol(   0 ): 3.580E+14  Parms: SM      M1      
 Compute Stats, Diag. #     83  sIceLoad  vol(   0 ): 3.580E+14  Parms: SM      U1      
 Compute Stats, Diag. #    223  SIuice    vol(   0 ): 3.513E+14  Parms: UU      M1      
 Compute Stats, Diag. #    224  SIvice    vol(   0 ): 3.508E+14  Parms: VV      M1      
 Compute Stats, Diag. #    225  SItaux    vol(   0 ): 3.513E+14  Parms: UU      U1      
 Compute Stats, Diag. #    226  SItauy    vol(   0 ): 3.508E+14  Parms: VV      U1      
 cg2d: Sum(rhs),rhsMax =  -1.45797965673724E+01  2.89288423967211E-01
(PID.TID 0000.0001)      cg2d_init_res =   4.15655360752226E-02
(PID.TID 0000.0001)      cg2d_iters(min,last) =      -1      24
(PID.TID 0000.0001)      cg2d_last_res =   2.62567415085606E-05
(PID.TID 0000.0001) // =======================================================
(PID.TID 0000.0001) // Begin MONITOR dynamic field statistics
(PID.TID 0000.0001) // =======================================================
(PID.TID 0000.0001) %MON time_tsnumber                =                   800
(PID.TID 0000.0001) %MON time_secondsf                =   7.2000000000000E+05
(PID.TID 0000.0001) %MON dynstat_eta_max              =   1.0313930974907E+00
(PID.TID 0000.0001) %MON dynstat_eta_min              =  -1.8450135301623E+00
(PID.TID 0000.0001) %MON dynstat_eta_mean             =   4.6120553020672E-04
(PID.TID 0000.0001) %MON dynstat_eta_sd               =   6.3252654043782E-01
(PID.TID 0000.0001) %MON dynstat_eta_del2             =   5.2209201706429E-05
(PID.TID 0000.0001) %MON dynstat_uvel_max             =   7.0887478646044E-01
(PID.TID 0000.0001) %MON dynstat_uvel_min             =  -7.1019428093966E-01
(PID.TID 0000.0001) %MON dynstat_uvel_mean            =   1.3317666542055E-03
(PID.TID 0000.0001) %MON dynstat_uvel_sd              =   1.8381669805824E-02
(PID.TID 0000.0001) %MON dynstat_uvel_del2            =   7.1389637683387E-06
(PID.TID 0000.0001) %MON dynstat_vvel_max             =   5.4114075372005E-01
(PID.TID 0000.0001) %MON dynstat_vvel_min             =  -8.6129803211800E-01
(PID.TID 0000.0001) %MON dynstat_vvel_mean            =   1.0851860569522E-03
(PID.TID 0000.0001) %MON dynstat_vvel_sd              =   1.9421198310515E-02
(PID.TID 0000.0001) %MON dynstat_vvel_del2            =   7.1873607660861E-06
(PID.TID 0000.0001) %MON dynstat_wvel_max             =   3.1088646198968E-04
(PID.TID 0000.0001) %MON dynstat_wvel_min             =  -8.1559186723584E-04
(PID.TID 0000.0001) %MON dynstat_wvel_mean            =   3.5550543033449E-09
(PID.TID 0000.0001) %MON dynstat_wvel_sd              =   1.7442969953205E-05
(PID.TID 0000.0001) %MON dynstat_wvel_del2            =   1.3521236165276E-08
(PID.TID 0000.0001) %MON dynstat_theta_max            =   3.2076664933636E+01
(PID.TID 0000.0001) %MON dynstat_theta_min            =  -2.0398209764130E+00
(PID.TID 0000.0001) %MON dynstat_theta_mean           =   3.5902866203107E+00
(PID.TID 0000.0001) %MON dynstat_theta_sd             =   4.4368461081975E+00
(PID.TID 0000.0001) %MON dynstat_theta_del2           =   9.1485464901022E-05
(PID.TID 0000.0001) %MON dynstat_salt_max             =   4.0711548118785E+01
(PID.TID 0000.0001) %MON dynstat_salt_min             =   5.5405524435771E+00
(PID.TID 0000.0001) %MON dynstat_salt_mean            =   3.4725567730608E+01
(PID.TID 0000.0001) %MON dynstat_salt_sd              =   3.7707205036296E-01
(PID.TID 0000.0001) %MON dynstat_salt_del2            =   3.5629490246641E-05
(PID.TID 0000.0001) %MON dynstat_sst_max              =   3.2076664933636E+01
(PID.TID 0000.0001) %MON dynstat_sst_min              =  -1.8091301851933E+00
(PID.TID 0000.0001) %MON dynstat_sst_mean             =   1.8478662319309E+01
(PID.TID 0000.0001) %MON dynstat_sst_sd               =   1.0259017297583E+01
(PID.TID 0000.0001) %MON dynstat_sst_del2             =   7.9628260841843E-04
(PID.TID 0000.0001) %MON dynstat_sss_max              =   3.9101618567956E+01
(PID.TID 0000.0001) %MON dynstat_sss_min              =   5.5405524435771E+00
(PID.TID 0000.0001) %MON dynstat_sss_mean             =   3.4700097210763E+01
(PID.TID 0000.0001) %MON dynstat_sss_sd               =   1.1736514265723E+00
(PID.TID 0000.0001) %MON dynstat_sss_del2             =   1.0908353312891E-03
(PID.TID 0000.0001) %MON forcing_qnet_max             =   7.7108361816406E+02
(PID.TID 0000.0001) %MON forcing_qnet_min             =  -1.1064405647384E+03
(PID.TID 0000.0001) %MON forcing_qnet_mean            =   2.9429818267029E+01
(PID.TID 0000.0001) %MON forcing_qnet_sd              =   1.6589617091254E+02
(PID.TID 0000.0001) %MON forcing_qnet_del2            =   3.1467426257441E-01
(PID.TID 0000.0001) %MON forcing_qsw_max              =   0.0000000000000E+00
(PID.TID 0000.0001) %MON forcing_qsw_min              =  -1.0967862249015E+02
(PID.TID 0000.0001) %MON forcing_qsw_mean             =  -1.6301661807482E+01
(PID.TID 0000.0001) %MON forcing_qsw_sd               =   2.5753298524748E+01
(PID.TID 0000.0001) %MON forcing_qsw_del2             =   2.1439993404236E-02
(PID.TID 0000.0001) %MON forcing_empmr_max            =   8.6740904953331E-04
(PID.TID 0000.0001) %MON forcing_empmr_min            =  -6.2018405646086E-02
(PID.TID 0000.0001) %MON forcing_empmr_mean           =  -3.9308862498563E-06
(PID.TID 0000.0001) %MON forcing_empmr_sd             =   3.0984770381005E-04
(PID.TID 0000.0001) %MON forcing_empmr_del2           =   3.8812487439622E-06
(PID.TID 0000.0001) %MON forcing_fu_max               =   1.2966223359108E+00
(PID.TID 0000.0001) %MON forcing_fu_min               =  -9.8636543750763E-01
(PID.TID 0000.0001) %MON forcing_fu_mean              =   2.4953096636067E-03
(PID.TID 0000.0001) %MON forcing_fu_sd                =   1.1206174414208E-01
(PID.TID 0000.0001) %MON forcing_fu_del2              =   1.4845857559922E-04
(PID.TID 0000.0001) %MON forcing_fv_max               =   9.6223989129066E-01
(PID.TID 0000.0001) %MON forcing_fv_min               =  -1.1397103071213E+00
(PID.TID 0000.0001) %MON forcing_fv_mean              =  -1.1986010007930E-02
(PID.TID 0000.0001) %MON forcing_fv_sd                =   1.0398705206272E-01
(PID.TID 0000.0001) %MON forcing_fv_del2              =   1.2379014900677E-04
(PID.TID 0000.0001) %MON trAdv_CFL_u_max              =   1.0879962067788E-02
(PID.TID 0000.0001) %MON trAdv_CFL_v_max              =   1.2191668037558E-02
(PID.TID 0000.0001) %MON trAdv_CFL_w_max              =   2.0590850747511E-02
(PID.TID 0000.0001) %MON advcfl_uvel_max              =   8.1076965084876E-03
(PID.TID 0000.0001) %MON advcfl_vvel_max              =   1.0877075588801E-02
(PID.TID 0000.0001) %MON advcfl_wvel_max              =   2.5729942769730E-02
(PID.TID 0000.0001) %MON advcfl_W_hf_max              =   2.5816070723258E-02
(PID.TID 0000.0001) %MON pe_b_mean                    =   5.2627890409055E-04
(PID.TID 0000.0001) %MON ke_max                       =   3.7731540266555E-01
(PID.TID 0000.0001) %MON ke_mean                      =   3.4622520571338E-04
(PID.TID 0000.0001) %MON ke_vol                       =   1.3349980408264E+18
(PID.TID 0000.0001) %MON vort_r_min                   =  -1.3105228604571E-05
(PID.TID 0000.0001) %MON vort_r_max                   =   1.7522981114805E-05
(PID.TID 0000.0001) %MON vort_a_mean                  =  -1.9727864647440E-05
(PID.TID 0000.0001) %MON vort_a_sd                    =   7.4542990720192E-05
(PID.TID 0000.0001) %MON vort_p_mean                  =  -2.1760531271338E-05
(PID.TID 0000.0001) %MON vort_p_sd                    =   9.7246205263752E-05
(PID.TID 0000.0001) %MON surfExpan_theta_mean         =  -1.0153899046667E-07
(PID.TID 0000.0001) %MON surfExpan_salt_mean          =   1.6744873582490E-08
(PID.TID 0000.0001) // =======================================================
(PID.TID 0000.0001) // End MONITOR dynamic field statistics
(PID.TID 0000.0001) // =======================================================
(PID.TID 0000.0001) // =======================================================
(PID.TID 0000.0001) // Begin MONITOR SEAICE statistics
(PID.TID 0000.0001) // =======================================================
(PID.TID 0000.0001) %MON seaice_tsnumber              =                   800
(PID.TID 0000.0001) %MON seaice_time_sec              =   7.2000000000000E+05
(PID.TID 0000.0001) %MON seaice_uice_max              =   4.0000000000000E-01
(PID.TID 0000.0001) %MON seaice_uice_min              =  -4.0000000000000E-01
(PID.TID 0000.0001) %MON seaice_uice_mean             =  -8.3054598624025E-03
(PID.TID 0000.0001) %MON seaice_uice_sd               =   1.9802383574176E-01
(PID.TID 0000.0001) %MON seaice_uice_del2             =   2.2931571122150E-04
(PID.TID 0000.0001) %MON seaice_vice_max              =   4.0000000000000E-01
(PID.TID 0000.0001) %MON seaice_vice_min              =  -4.0000000000000E-01
(PID.TID 0000.0001) %MON seaice_vice_mean             =  -2.1960776359499E-02
(PID.TID 0000.0001) %MON seaice_vice_sd               =   2.1302038025672E-01
(PID.TID 0000.0001) %MON seaice_vice_del2             =   2.3932563818061E-04
(PID.TID 0000.0001) %MON seaice_area_max              =   1.0000000000000E+00
(PID.TID 0000.0001) %MON seaice_area_min              =   0.0000000000000E+00
(PID.TID 0000.0001) %MON seaice_area_mean             =   6.5660377689787E-02
(PID.TID 0000.0001) %MON seaice_area_sd               =   2.2946447338130E-01
(PID.TID 0000.0001) %MON seaice_area_del2             =   3.8962234361547E-04
(PID.TID 0000.0001) %MON seaice_heff_max              =   2.4989993498777E+01
(PID.TID 0000.0001) %MON seaice_heff_min              =   0.0000000000000E+00
(PID.TID 0000.0001) %MON seaice_heff_mean             =   2.1244470240648E-01
(PID.TID 0000.0001) %MON seaice_heff_sd               =   1.0664102114173E+00
(PID.TID 0000.0001) %MON seaice_heff_del2             =   3.8381399557879E-03
(PID.TID 0000.0001) %MON seaice_hsnow_max             =   8.2541634533845E+00
(PID.TID 0000.0001) %MON seaice_hsnow_min             =   0.0000000000000E+00
(PID.TID 0000.0001) %MON seaice_hsnow_mean            =   2.4010364659941E-02
(PID.TID 0000.0001) %MON seaice_hsnow_sd              =   1.5610894760109E-01
(PID.TID 0000.0001) %MON seaice_hsnow_del2            =   1.2389123975593E-03
(PID.TID 0000.0001) // =======================================================
(PID.TID 0000.0001) // End MONITOR SEAICE statistics
(PID.TID 0000.0001) // =======================================================
 Computing Diagnostic #     86  oceQnet      Counter:       4   Parms: SM      U1      
 Computing Diagnostic #     87  oceQsw       Counter:       4   Parms: SM      U1      
 Computing Diagnostic #     84  oceFWflx     Counter:       4   Parms: SM      U1      
 Computing Diagnostic #     85  oceSflux     Counter:       4   Parms: SM      U1      
 Computing Diagnostic #     80  oceTAUX      Counter:       4   Parms: UU      U1      
           Vector  Mate for  oceTAUX      Diagnostic #     81  oceTAUY  exists 
 Computing Diagnostic #     81  oceTAUY      Counter:       4   Parms: VV      U1      
           Vector  Mate for  oceTAUY      Diagnostic #     80  oceTAUX  exists 
 Computing Diagnostic #     26  THETA        Counter:       4   Parms: SMR     MR      
 Computing Diagnostic #     27  SALT         Counter:       4   Parms: SMR     MR      
 Computing Diagnostic #     30  UVEL         Counter:       4   Parms: UUR     MR      
           Vector  Mate for  UVEL         Diagnostic #     31  VVEL     exists 
 Computing Diagnostic #     31  VVEL         Counter:       4   Parms: VVR     MR      
           Vector  Mate for  VVEL         Diagnostic #     30  UVEL     exists 
 Computing Diagnostic #    214  SIarea       Counter:       4   Parms: SM      M1      
 Computing Diagnostic #    217  SIheff       Counter:       4   Parms: SM      M1      
 Computing Diagnostic #    219  SIhsnow      Counter:       4   Parms: SM      M1      
 Computing Diagnostic #     83  sIceLoad     Counter:       4   Parms: SM      U1      
 Computing Diagnostic #    223  SIuice       Counter:       4   Parms: UU      M1      
           Vector  Mate for  SIuice       Diagnostic #    224  SIvice   exists 
 Computing Diagnostic #    224  SIvice       Counter:       4   Parms: VV      M1      
           Vector  Mate for  SIvice       Diagnostic #    223  SIuice   exists 
 Computing Diagnostic #    225  SItaux       Counter:       4   Parms: UU      U1      
           Vector  Mate for  SItaux       Diagnostic #    226  SItauy   exists 
 Computing Diagnostic #    226  SItauy       Counter:       4   Parms: VV      U1      
           Vector  Mate for  SItauy       Diagnostic #    225  SItaux   exists 
 Computing Diagnostic #    285  SIareaN      Counter:       4   Parms: SM      MX      
 Computing Diagnostic #    284  SIheffN      Counter:       4   Parms: SM      MX      
 Computing Diagnostic #    286  SIhsnowN     Counter:       4   Parms: SM      MX      
 Compute Stats, Diag. #    214  SIarea    vol(   0 ): 3.580E+14  Parms: SM      M1      
 Compute Stats, Diag. #    217  SIheff    vol(   0 ): 3.580E+14  Parms: SM      M1      
 Compute Stats, Diag. #    219  SIhsnow   vol(   0 ): 3.580E+14  Parms: SM      M1      
 Compute Stats, Diag. #     83  sIceLoad  vol(   0 ): 3.580E+14  Parms: SM      U1      
 Compute Stats, Diag. #    223  SIuice    vol(   0 ): 3.513E+14  Parms: UU      M1      
 Compute Stats, Diag. #    224  SIvice    vol(   0 ): 3.508E+14  Parms: VV      M1      
 Compute Stats, Diag. #    225  SItaux    vol(   0 ): 3.513E+14  Parms: UU      U1      
 Compute Stats, Diag. #    226  SItauy    vol(   0 ): 3.508E+14  Parms: VV      U1      
 cg2d: Sum(rhs),rhsMax =  -1.46886870233793E+01  2.89295674937337E-01
 Compute Stats, Diag. #    214  SIarea    vol(   0 ): 3.580E+14  Parms: SM      M1      
 Compute Stats, Diag. #    217  SIheff    vol(   0 ): 3.580E+14  Parms: SM      M1      
 Compute Stats, Diag. #    219  SIhsnow   vol(   0 ): 3.580E+14  Parms: SM      M1      
 Compute Stats, Diag. #     83  sIceLoad  vol(   0 ): 3.580E+14  Parms: SM      U1      
 Compute Stats, Diag. #    223  SIuice    vol(   0 ): 3.513E+14  Parms: UU      M1      
 Compute Stats, Diag. #    224  SIvice    vol(   0 ): 3.508E+14  Parms: VV      M1      
 Compute Stats, Diag. #    225  SItaux    vol(   0 ): 3.513E+14  Parms: UU      U1      
 Compute Stats, Diag. #    226  SItauy    vol(   0 ): 3.508E+14  Parms: VV      U1      
 cg2d: Sum(rhs),rhsMax =  -1.47998207682094E+01  2.89306900865413E-01
 Compute Stats, Diag. #    214  SIarea    vol(   0 ): 3.580E+14  Parms: SM      M1      
 Compute Stats, Diag. #    217  SIheff    vol(   0 ): 3.580E+14  Parms: SM      M1      
 Compute Stats, Diag. #    219  SIhsnow   vol(   0 ): 3.580E+14  Parms: SM      M1      
 Compute Stats, Diag. #     83  sIceLoad  vol(   0 ): 3.580E+14  Parms: SM      U1      
 Compute Stats, Diag. #    223  SIuice    vol(   0 ): 3.513E+14  Parms: UU      M1      
 Compute Stats, Diag. #    224  SIvice    vol(   0 ): 3.508E+14  Parms: VV      M1      
 Compute Stats, Diag. #    225  SItaux    vol(   0 ): 3.513E+14  Parms: UU      U1      
 Compute Stats, Diag. #    226  SItauy    vol(   0 ): 3.508E+14  Parms: VV      U1      
 cg2d: Sum(rhs),rhsMax =  -1.49174623005354E+01  2.89321545174268E-01
 Compute Stats, Diag. #    214  SIarea    vol(   0 ): 3.580E+14  Parms: SM      M1      
 Compute Stats, Diag. #    217  SIheff    vol(   0 ): 3.580E+14  Parms: SM      M1      
 Compute Stats, Diag. #    219  SIhsnow   vol(   0 ): 3.580E+14  Parms: SM      M1      
 Compute Stats, Diag. #     83  sIceLoad  vol(   0 ): 3.580E+14  Parms: SM      U1      
 Compute Stats, Diag. #    223  SIuice    vol(   0 ): 3.513E+14  Parms: UU      M1      
 Compute Stats, Diag. #    224  SIvice    vol(   0 ): 3.508E+14  Parms: VV      M1      
 Compute Stats, Diag. #    225  SItaux    vol(   0 ): 3.513E+14  Parms: UU      U1      
 Compute Stats, Diag. #    226  SItauy    vol(   0 ): 3.508E+14  Parms: VV      U1      
 cg2d: Sum(rhs),rhsMax =  -1.50367069294758E+01  2.89340103735874E-01
 Computing Diagnostic #     86  oceQnet      Counter:       4   Parms: SM      U1      
 Computing Diagnostic #     87  oceQsw       Counter:       4   Parms: SM      U1      
 Computing Diagnostic #     84  oceFWflx     Counter:       4   Parms: SM      U1      
 Computing Diagnostic #     85  oceSflux     Counter:       4   Parms: SM      U1      
 Computing Diagnostic #     80  oceTAUX      Counter:       4   Parms: UU      U1      
           Vector  Mate for  oceTAUX      Diagnostic #     81  oceTAUY  exists 
 Computing Diagnostic #     81  oceTAUY      Counter:       4   Parms: VV      U1      
           Vector  Mate for  oceTAUY      Diagnostic #     80  oceTAUX  exists 
 Computing Diagnostic #     26  THETA        Counter:       4   Parms: SMR     MR      
 Computing Diagnostic #     27  SALT         Counter:       4   Parms: SMR     MR      
 Computing Diagnostic #     30  UVEL         Counter:       4   Parms: UUR     MR      
           Vector  Mate for  UVEL         Diagnostic #     31  VVEL     exists 
 Computing Diagnostic #     31  VVEL         Counter:       4   Parms: VVR     MR      
           Vector  Mate for  VVEL         Diagnostic #     30  UVEL     exists 
 Computing Diagnostic #    214  SIarea       Counter:       4   Parms: SM      M1      
 Computing Diagnostic #    217  SIheff       Counter:       4   Parms: SM      M1      
 Computing Diagnostic #    219  SIhsnow      Counter:       4   Parms: SM      M1      
 Computing Diagnostic #     83  sIceLoad     Counter:       4   Parms: SM      U1      
 Computing Diagnostic #    223  SIuice       Counter:       4   Parms: UU      M1      
           Vector  Mate for  SIuice       Diagnostic #    224  SIvice   exists 
 Computing Diagnostic #    224  SIvice       Counter:       4   Parms: VV      M1      
           Vector  Mate for  SIvice       Diagnostic #    223  SIuice   exists 
 Computing Diagnostic #    225  SItaux       Counter:       4   Parms: UU      U1      
           Vector  Mate for  SItaux       Diagnostic #    226  SItauy   exists 
 Computing Diagnostic #    226  SItauy       Counter:       4   Parms: VV      U1      
           Vector  Mate for  SItauy       Diagnostic #    225  SItaux   exists 
 Computing Diagnostic #    285  SIareaN      Counter:       4   Parms: SM      MX      
 Computing Diagnostic #    284  SIheffN      Counter:       4   Parms: SM      MX      
 Computing Diagnostic #    286  SIhsnowN     Counter:       4   Parms: SM      MX      
 Compute Stats, Diag. #    214  SIarea    vol(   0 ): 3.580E+14  Parms: SM      M1      
 Compute Stats, Diag. #    217  SIheff    vol(   0 ): 3.580E+14  Parms: SM      M1      
 Compute Stats, Diag. #    219  SIhsnow   vol(   0 ): 3.580E+14  Parms: SM      M1      
 Compute Stats, Diag. #     83  sIceLoad  vol(   0 ): 3.580E+14  Parms: SM      U1      
 Compute Stats, Diag. #    223  SIuice    vol(   0 ): 3.513E+14  Parms: UU      M1      
 Compute Stats, Diag. #    224  SIvice    vol(   0 ): 3.508E+14  Parms: VV      M1      
 Compute Stats, Diag. #    225  SItaux    vol(   0 ): 3.513E+14  Parms: UU      U1      
 Compute Stats, Diag. #    226  SItauy    vol(   0 ): 3.508E+14  Parms: VV      U1      
 cg2d: Sum(rhs),rhsMax =  -1.51562387431729E+01  2.89361799440672E-01
 Compute Stats, Diag. #    214  SIarea    vol(   0 ): 3.580E+14  Parms: SM      M1      
 Compute Stats, Diag. #    217  SIheff    vol(   0 ): 3.580E+14  Parms: SM      M1      
 Compute Stats, Diag. #    219  SIhsnow   vol(   0 ): 3.580E+14  Parms: SM      M1      
 Compute Stats, Diag. #     83  sIceLoad  vol(   0 ): 3.580E+14  Parms: SM      U1      
 Compute Stats, Diag. #    223  SIuice    vol(   0 ): 3.513E+14  Parms: UU      M1      
 Compute Stats, Diag. #    224  SIvice    vol(   0 ): 3.508E+14  Parms: VV      M1      
 Compute Stats, Diag. #    225  SItaux    vol(   0 ): 3.513E+14  Parms: UU      U1      
 Compute Stats, Diag. #    226  SItauy    vol(   0 ): 3.508E+14  Parms: VV      U1      
 cg2d: Sum(rhs),rhsMax =  -1.52802774826790E+01  2.89386160269411E-01
 Compute Stats, Diag. #    214  SIarea    vol(   0 ): 3.580E+14  Parms: SM      M1      
 Compute Stats, Diag. #    217  SIheff    vol(   0 ): 3.580E+14  Parms: SM      M1      
 Compute Stats, Diag. #    219  SIhsnow   vol(   0 ): 3.580E+14  Parms: SM      M1      
 Compute Stats, Diag. #     83  sIceLoad  vol(   0 ): 3.580E+14  Parms: SM      U1      
 Compute Stats, Diag. #    223  SIuice    vol(   0 ): 3.513E+14  Parms: UU      M1      
 Compute Stats, Diag. #    224  SIvice    vol(   0 ): 3.508E+14  Parms: VV      M1      
 Compute Stats, Diag. #    225  SItaux    vol(   0 ): 3.513E+14  Parms: UU      U1      
 Compute Stats, Diag. #    226  SItauy    vol(   0 ): 3.508E+14  Parms: VV      U1      
 cg2d: Sum(rhs),rhsMax =  -1.54072201536553E+01  2.89414987472010E-01
 Compute Stats, Diag. #    214  SIarea    vol(   0 ): 3.580E+14  Parms: SM      M1      
 Compute Stats, Diag. #    217  SIheff    vol(   0 ): 3.580E+14  Parms: SM      M1      
 Compute Stats, Diag. #    219  SIhsnow   vol(   0 ): 3.580E+14  Parms: SM      M1      
 Compute Stats, Diag. #     83  sIceLoad  vol(   0 ): 3.580E+14  Parms: SM      U1      
 Compute Stats, Diag. #    223  SIuice    vol(   0 ): 3.513E+14  Parms: UU      M1      
 Compute Stats, Diag. #    224  SIvice    vol(   0 ): 3.508E+14  Parms: VV      M1      
 Compute Stats, Diag. #    225  SItaux    vol(   0 ): 3.513E+14  Parms: UU      U1      
 Compute Stats, Diag. #    226  SItauy    vol(   0 ): 3.508E+14  Parms: VV      U1      
 cg2d: Sum(rhs),rhsMax =  -1.55411351788050E+01  2.89445113774572E-01
(PID.TID 0000.0001)      cg2d_init_res =   4.31902139558396E-02
(PID.TID 0000.0001)      cg2d_iters(min,last) =      -1      24
(PID.TID 0000.0001)      cg2d_last_res =   2.84408199081310E-05
(PID.TID 0000.0001) // =======================================================
(PID.TID 0000.0001) // Begin MONITOR dynamic field statistics
(PID.TID 0000.0001) // =======================================================
(PID.TID 0000.0001) %MON time_tsnumber                =                   808
(PID.TID 0000.0001) %MON time_secondsf                =   7.2720000000000E+05
(PID.TID 0000.0001) %MON dynstat_eta_max              =   1.0301883284996E+00
(PID.TID 0000.0001) %MON dynstat_eta_min              =  -1.8452208389042E+00
(PID.TID 0000.0001) %MON dynstat_eta_mean             =   4.9161574079812E-04
(PID.TID 0000.0001) %MON dynstat_eta_sd               =   6.3211911529553E-01
(PID.TID 0000.0001) %MON dynstat_eta_del2             =   5.2143396353344E-05
(PID.TID 0000.0001) %MON dynstat_uvel_max             =   7.1042830785777E-01
(PID.TID 0000.0001) %MON dynstat_uvel_min             =  -7.1200439221464E-01
(PID.TID 0000.0001) %MON dynstat_uvel_mean            =   1.3358532002587E-03
(PID.TID 0000.0001) %MON dynstat_uvel_sd              =   1.8351876484982E-02
(PID.TID 0000.0001) %MON dynstat_uvel_del2            =   7.1604828834822E-06
(PID.TID 0000.0001) %MON dynstat_vvel_max             =   5.4087709598213E-01
(PID.TID 0000.0001) %MON dynstat_vvel_min             =  -8.6196867437947E-01
(PID.TID 0000.0001) %MON dynstat_vvel_mean            =   1.0802729506307E-03
(PID.TID 0000.0001) %MON dynstat_vvel_sd              =   1.9427140016839E-02
(PID.TID 0000.0001) %MON dynstat_vvel_del2            =   7.1846086835287E-06
(PID.TID 0000.0001) %MON dynstat_wvel_max             =   3.0662227008470E-04
(PID.TID 0000.0001) %MON dynstat_wvel_min             =  -8.0995199325561E-04
(PID.TID 0000.0001) %MON dynstat_wvel_mean            =   1.7082826914709E-09
(PID.TID 0000.0001) %MON dynstat_wvel_sd              =   1.7432983500310E-05
(PID.TID 0000.0001) %MON dynstat_wvel_del2            =   1.3510099155314E-08
(PID.TID 0000.0001) %MON dynstat_theta_max            =   3.2093216042955E+01
(PID.TID 0000.0001) %MON dynstat_theta_min            =  -2.0398128075416E+00
(PID.TID 0000.0001) %MON dynstat_theta_mean           =   3.5902679267206E+00
(PID.TID 0000.0001) %MON dynstat_theta_sd             =   4.4367917534686E+00
(PID.TID 0000.0001) %MON dynstat_theta_del2           =   9.1432806399486E-05
(PID.TID 0000.0001) %MON dynstat_salt_max             =   4.0711547671521E+01
(PID.TID 0000.0001) %MON dynstat_salt_min             =   5.5532216827015E+00
(PID.TID 0000.0001) %MON dynstat_salt_mean            =   3.4725567475339E+01
(PID.TID 0000.0001) %MON dynstat_salt_sd              =   3.7707347775461E-01
(PID.TID 0000.0001) %MON dynstat_salt_del2            =   3.5753758340092E-05
(PID.TID 0000.0001) %MON dynstat_sst_max              =   3.2093216042955E+01
(PID.TID 0000.0001) %MON dynstat_sst_min              =  -1.8070273061339E+00
(PID.TID 0000.0001) %MON dynstat_sst_mean             =   1.8473208420397E+01
(PID.TID 0000.0001) %MON dynstat_sst_sd               =   1.0258653783830E+01
(PID.TID 0000.0001) %MON dynstat_sst_del2             =   7.9603989743270E-04
(PID.TID 0000.0001) %MON dynstat_sss_max              =   3.9101459070549E+01
(PID.TID 0000.0001) %MON dynstat_sss_min              =   5.5532216827015E+00
(PID.TID 0000.0001) %MON dynstat_sss_mean             =   3.4700073192687E+01
(PID.TID 0000.0001) %MON dynstat_sss_sd               =   1.1739704248887E+00
(PID.TID 0000.0001) %MON dynstat_sss_del2             =   1.0964249738532E-03
(PID.TID 0000.0001) %MON forcing_qnet_max             =   1.5927895707766E+03
(PID.TID 0000.0001) %MON forcing_qnet_min             =  -6.9373956298828E+02
(PID.TID 0000.0001) %MON forcing_qnet_mean            =   4.5164331660165E+01
(PID.TID 0000.0001) %MON forcing_qnet_sd              =   1.6917018034606E+02
(PID.TID 0000.0001) %MON forcing_qnet_del2            =   3.2499004921256E-01
(PID.TID 0000.0001) %MON forcing_qsw_max              =   0.0000000000000E+00
(PID.TID 0000.0001) %MON forcing_qsw_min              =  -1.0556610589407E+02
(PID.TID 0000.0001) %MON forcing_qsw_mean             =  -1.4015726435222E+01
(PID.TID 0000.0001) %MON forcing_qsw_sd               =   2.5727932255230E+01
(PID.TID 0000.0001) %MON forcing_qsw_del2             =   1.8795181404799E-02
(PID.TID 0000.0001) %MON forcing_empmr_max            =   1.1309136170894E-03
(PID.TID 0000.0001) %MON forcing_empmr_min            =  -6.0891069471836E-02
(PID.TID 0000.0001) %MON forcing_empmr_mean           =  -4.8433428667101E-06
(PID.TID 0000.0001) %MON forcing_empmr_sd             =   3.1969338919577E-04
(PID.TID 0000.0001) %MON forcing_empmr_del2           =   4.1891537065305E-06
(PID.TID 0000.0001) %MON forcing_fu_max               =   1.3712754249573E+00
(PID.TID 0000.0001) %MON forcing_fu_min               =  -1.0329411625862E+00
(PID.TID 0000.0001) %MON forcing_fu_mean              =   2.8149873418161E-03
(PID.TID 0000.0001) %MON forcing_fu_sd                =   1.1309332881063E-01
(PID.TID 0000.0001) %MON forcing_fu_del2              =   1.4934050001896E-04
(PID.TID 0000.0001) %MON forcing_fv_max               =   9.2730191349983E-01
(PID.TID 0000.0001) %MON forcing_fv_min               =  -1.0923059582710E+00
(PID.TID 0000.0001) %MON forcing_fv_mean              =  -1.2770132210914E-02
(PID.TID 0000.0001) %MON forcing_fv_sd                =   1.0442059077130E-01
(PID.TID 0000.0001) %MON forcing_fv_del2              =   1.2454539176765E-04
(PID.TID 0000.0001) %MON trAdv_CFL_u_max              =   1.1764112955965E-02
(PID.TID 0000.0001) %MON trAdv_CFL_v_max              =   1.2088797914417E-02
(PID.TID 0000.0001) %MON trAdv_CFL_w_max              =   2.0393708896347E-02
(PID.TID 0000.0001) %MON advcfl_uvel_max              =   7.5044134718510E-03
(PID.TID 0000.0001) %MON advcfl_vvel_max              =   1.0871775996920E-02
(PID.TID 0000.0001) %MON advcfl_wvel_max              =   2.6525579705424E-02
(PID.TID 0000.0001) %MON advcfl_W_hf_max              =   2.6615573852983E-02
(PID.TID 0000.0001) %MON pe_b_mean                    =   5.2560117963358E-04
(PID.TID 0000.0001) %MON ke_max                       =   3.7659683418821E-01
(PID.TID 0000.0001) %MON ke_mean                      =   3.4580900719246E-04
(PID.TID 0000.0001) %MON ke_vol                       =   1.3349980514279E+18
(PID.TID 0000.0001) %MON vort_r_min                   =  -1.2307728893907E-05
(PID.TID 0000.0001) %MON vort_r_max                   =   1.7153639628369E-05
(PID.TID 0000.0001) %MON vort_a_mean                  =  -1.9727864647440E-05
(PID.TID 0000.0001) %MON vort_a_sd                    =   7.4542987895162E-05
(PID.TID 0000.0001) %MON vort_p_mean                  =  -2.1760531107828E-05
(PID.TID 0000.0001) %MON vort_p_sd                    =   9.7246259249735E-05
(PID.TID 0000.0001) %MON surfExpan_theta_mean         =  -1.1710227379277E-07
(PID.TID 0000.0001) %MON surfExpan_salt_mean          =   2.7476640396389E-08
(PID.TID 0000.0001) // =======================================================
(PID.TID 0000.0001) // End MONITOR dynamic field statistics
(PID.TID 0000.0001) // =======================================================
(PID.TID 0000.0001) // =======================================================
(PID.TID 0000.0001) // Begin MONITOR SEAICE statistics
(PID.TID 0000.0001) // =======================================================
(PID.TID 0000.0001) %MON seaice_tsnumber              =                   808
(PID.TID 0000.0001) %MON seaice_time_sec              =   7.2720000000000E+05
(PID.TID 0000.0001) %MON seaice_uice_max              =   4.0000000000000E-01
(PID.TID 0000.0001) %MON seaice_uice_min              =  -4.0000000000000E-01
(PID.TID 0000.0001) %MON seaice_uice_mean             =  -8.3054598624025E-03
(PID.TID 0000.0001) %MON seaice_uice_sd               =   1.9802383574176E-01
(PID.TID 0000.0001) %MON seaice_uice_del2             =   2.2931571122150E-04
(PID.TID 0000.0001) %MON seaice_vice_max              =   4.0000000000000E-01
(PID.TID 0000.0001) %MON seaice_vice_min              =  -4.0000000000000E-01
(PID.TID 0000.0001) %MON seaice_vice_mean             =  -2.1960776359499E-02
(PID.TID 0000.0001) %MON seaice_vice_sd               =   2.1302038025672E-01
(PID.TID 0000.0001) %MON seaice_vice_del2             =   2.3932563818061E-04
(PID.TID 0000.0001) %MON seaice_area_max              =   1.0000000000000E+00
(PID.TID 0000.0001) %MON seaice_area_min              =   0.0000000000000E+00
(PID.TID 0000.0001) %MON seaice_area_mean             =   6.5624721683862E-02
(PID.TID 0000.0001) %MON seaice_area_sd               =   2.2940367326935E-01
(PID.TID 0000.0001) %MON seaice_area_del2             =   3.8919425869532E-04
(PID.TID 0000.0001) %MON seaice_heff_max              =   2.4988106136909E+01
(PID.TID 0000.0001) %MON seaice_heff_min              =   0.0000000000000E+00
(PID.TID 0000.0001) %MON seaice_heff_mean             =   2.1241291167795E-01
(PID.TID 0000.0001) %MON seaice_heff_sd               =   1.0663829276694E+00
(PID.TID 0000.0001) %MON seaice_heff_del2             =   3.8374971812422E-03
(PID.TID 0000.0001) %MON seaice_hsnow_max             =   8.2535424427479E+00
(PID.TID 0000.0001) %MON seaice_hsnow_min             =   0.0000000000000E+00
(PID.TID 0000.0001) %MON seaice_hsnow_mean            =   2.4007553863136E-02
(PID.TID 0000.0001) %MON seaice_hsnow_sd              =   1.5609951244742E-01
(PID.TID 0000.0001) %MON seaice_hsnow_del2            =   1.2388082562050E-03
(PID.TID 0000.0001) // =======================================================
(PID.TID 0000.0001) // End MONITOR SEAICE statistics
(PID.TID 0000.0001) // =======================================================
 Computing Diagnostic #     86  oceQnet      Counter:       4   Parms: SM      U1      
 Computing Diagnostic #     87  oceQsw       Counter:       4   Parms: SM      U1      
 Computing Diagnostic #     84  oceFWflx     Counter:       4   Parms: SM      U1      
 Computing Diagnostic #     85  oceSflux     Counter:       4   Parms: SM      U1      
 Computing Diagnostic #     80  oceTAUX      Counter:       4   Parms: UU      U1      
           Vector  Mate for  oceTAUX      Diagnostic #     81  oceTAUY  exists 
 Computing Diagnostic #     81  oceTAUY      Counter:       4   Parms: VV      U1      
           Vector  Mate for  oceTAUY      Diagnostic #     80  oceTAUX  exists 
 Computing Diagnostic #     26  THETA        Counter:       4   Parms: SMR     MR      
 Computing Diagnostic #     27  SALT         Counter:       4   Parms: SMR     MR      
 Computing Diagnostic #     30  UVEL         Counter:       4   Parms: UUR     MR      
           Vector  Mate for  UVEL         Diagnostic #     31  VVEL     exists 
 Computing Diagnostic #     31  VVEL         Counter:       4   Parms: VVR     MR      
           Vector  Mate for  VVEL         Diagnostic #     30  UVEL     exists 
 Computing Diagnostic #    214  SIarea       Counter:       4   Parms: SM      M1      
 Computing Diagnostic #    217  SIheff       Counter:       4   Parms: SM      M1      
 Computing Diagnostic #    219  SIhsnow      Counter:       4   Parms: SM      M1      
 Computing Diagnostic #     83  sIceLoad     Counter:       4   Parms: SM      U1      
 Computing Diagnostic #    223  SIuice       Counter:       4   Parms: UU      M1      
           Vector  Mate for  SIuice       Diagnostic #    224  SIvice   exists 
 Computing Diagnostic #    224  SIvice       Counter:       4   Parms: VV      M1      
           Vector  Mate for  SIvice       Diagnostic #    223  SIuice   exists 
 Computing Diagnostic #    225  SItaux       Counter:       4   Parms: UU      U1      
           Vector  Mate for  SItaux       Diagnostic #    226  SItauy   exists 
 Computing Diagnostic #    226  SItauy       Counter:       4   Parms: VV      U1      
           Vector  Mate for  SItauy       Diagnostic #    225  SItaux   exists 
 Computing Diagnostic #    285  SIareaN      Counter:       4   Parms: SM      MX      
 Computing Diagnostic #    284  SIheffN      Counter:       4   Parms: SM      MX      
 Computing Diagnostic #    286  SIhsnowN     Counter:       4   Parms: SM      MX      
 Compute Stats, Diag. #    214  SIarea    vol(   0 ): 3.580E+14  Parms: SM      M1      
 Compute Stats, Diag. #    217  SIheff    vol(   0 ): 3.580E+14  Parms: SM      M1      
 Compute Stats, Diag. #    219  SIhsnow   vol(   0 ): 3.580E+14  Parms: SM      M1      
 Compute Stats, Diag. #     83  sIceLoad  vol(   0 ): 3.580E+14  Parms: SM      U1      
 Compute Stats, Diag. #    223  SIuice    vol(   0 ): 3.513E+14  Parms: UU      M1      
 Compute Stats, Diag. #    224  SIvice    vol(   0 ): 3.508E+14  Parms: VV      M1      
 Compute Stats, Diag. #    225  SItaux    vol(   0 ): 3.513E+14  Parms: UU      U1      
 Compute Stats, Diag. #    226  SItauy    vol(   0 ): 3.508E+14  Parms: VV      U1      
 cg2d: Sum(rhs),rhsMax =  -1.56699982816379E+01  2.89475312431567E-01
 Compute Stats, Diag. #    214  SIarea    vol(   0 ): 3.580E+14  Parms: SM      M1      
 Compute Stats, Diag. #    217  SIheff    vol(   0 ): 3.580E+14  Parms: SM      M1      
 Compute Stats, Diag. #    219  SIhsnow   vol(   0 ): 3.580E+14  Parms: SM      M1      
 Compute Stats, Diag. #     83  sIceLoad  vol(   0 ): 3.580E+14  Parms: SM      U1      
 Compute Stats, Diag. #    223  SIuice    vol(   0 ): 3.513E+14  Parms: UU      M1      
 Compute Stats, Diag. #    224  SIvice    vol(   0 ): 3.508E+14  Parms: VV      M1      
 Compute Stats, Diag. #    225  SItaux    vol(   0 ): 3.513E+14  Parms: UU      U1      
 Compute Stats, Diag. #    226  SItauy    vol(   0 ): 3.508E+14  Parms: VV      U1      
 cg2d: Sum(rhs),rhsMax =  -1.58039715566079E+01  2.89505196126481E-01
 Compute Stats, Diag. #    214  SIarea    vol(   0 ): 3.580E+14  Parms: SM      M1      
 Compute Stats, Diag. #    217  SIheff    vol(   0 ): 3.580E+14  Parms: SM      M1      
 Compute Stats, Diag. #    219  SIhsnow   vol(   0 ): 3.580E+14  Parms: SM      M1      
 Compute Stats, Diag. #     83  sIceLoad  vol(   0 ): 3.580E+14  Parms: SM      U1      
 Compute Stats, Diag. #    223  SIuice    vol(   0 ): 3.513E+14  Parms: UU      M1      
 Compute Stats, Diag. #    224  SIvice    vol(   0 ): 3.508E+14  Parms: VV      M1      
 Compute Stats, Diag. #    225  SItaux    vol(   0 ): 3.513E+14  Parms: UU      U1      
 Compute Stats, Diag. #    226  SItauy    vol(   0 ): 3.508E+14  Parms: VV      U1      
 cg2d: Sum(rhs),rhsMax =  -1.59394268195591E+01  2.89534149133781E-01
 Compute Stats, Diag. #    214  SIarea    vol(   0 ): 3.580E+14  Parms: SM      M1      
 Compute Stats, Diag. #    217  SIheff    vol(   0 ): 3.580E+14  Parms: SM      M1      
 Compute Stats, Diag. #    219  SIhsnow   vol(   0 ): 3.580E+14  Parms: SM      M1      
 Compute Stats, Diag. #     83  sIceLoad  vol(   0 ): 3.580E+14  Parms: SM      U1      
 Compute Stats, Diag. #    223  SIuice    vol(   0 ): 3.513E+14  Parms: UU      M1      
 Compute Stats, Diag. #    224  SIvice    vol(   0 ): 3.508E+14  Parms: VV      M1      
 Compute Stats, Diag. #    225  SItaux    vol(   0 ): 3.513E+14  Parms: UU      U1      
 Compute Stats, Diag. #    226  SItauy    vol(   0 ): 3.508E+14  Parms: VV      U1      
 cg2d: Sum(rhs),rhsMax =  -1.60655610468067E+01  2.89561150992263E-01
 Computing Diagnostic #     86  oceQnet      Counter:       4   Parms: SM      U1      
 Computing Diagnostic #     87  oceQsw       Counter:       4   Parms: SM      U1      
 Computing Diagnostic #     84  oceFWflx     Counter:       4   Parms: SM      U1      
 Computing Diagnostic #     85  oceSflux     Counter:       4   Parms: SM      U1      
 Computing Diagnostic #     80  oceTAUX      Counter:       4   Parms: UU      U1      
           Vector  Mate for  oceTAUX      Diagnostic #     81  oceTAUY  exists 
 Computing Diagnostic #     81  oceTAUY      Counter:       4   Parms: VV      U1      
           Vector  Mate for  oceTAUY      Diagnostic #     80  oceTAUX  exists 
 Computing Diagnostic #     26  THETA        Counter:       4   Parms: SMR     MR      
 Computing Diagnostic #     27  SALT         Counter:       4   Parms: SMR     MR      
 Computing Diagnostic #     30  UVEL         Counter:       4   Parms: UUR     MR      
           Vector  Mate for  UVEL         Diagnostic #     31  VVEL     exists 
 Computing Diagnostic #     31  VVEL         Counter:       4   Parms: VVR     MR      
           Vector  Mate for  VVEL         Diagnostic #     30  UVEL     exists 
 Computing Diagnostic #    214  SIarea       Counter:       4   Parms: SM      M1      
 Computing Diagnostic #    217  SIheff       Counter:       4   Parms: SM      M1      
 Computing Diagnostic #    219  SIhsnow      Counter:       4   Parms: SM      M1      
 Computing Diagnostic #     83  sIceLoad     Counter:       4   Parms: SM      U1      
 Computing Diagnostic #    223  SIuice       Counter:       4   Parms: UU      M1      
           Vector  Mate for  SIuice       Diagnostic #    224  SIvice   exists 
 Computing Diagnostic #    224  SIvice       Counter:       4   Parms: VV      M1      
           Vector  Mate for  SIvice       Diagnostic #    223  SIuice   exists 
 Computing Diagnostic #    225  SItaux       Counter:       4   Parms: UU      U1      
           Vector  Mate for  SItaux       Diagnostic #    226  SItauy   exists 
 Computing Diagnostic #    226  SItauy       Counter:       4   Parms: VV      U1      
           Vector  Mate for  SItauy       Diagnostic #    225  SItaux   exists 
 Computing Diagnostic #    285  SIareaN      Counter:       4   Parms: SM      MX      
 Computing Diagnostic #    284  SIheffN      Counter:       4   Parms: SM      MX      
 Computing Diagnostic #    286  SIhsnowN     Counter:       4   Parms: SM      MX      
 Compute Stats, Diag. #    214  SIarea    vol(   0 ): 3.580E+14  Parms: SM      M1      
 Compute Stats, Diag. #    217  SIheff    vol(   0 ): 3.580E+14  Parms: SM      M1      
 Compute Stats, Diag. #    219  SIhsnow   vol(   0 ): 3.580E+14  Parms: SM      M1      
 Compute Stats, Diag. #     83  sIceLoad  vol(   0 ): 3.580E+14  Parms: SM      U1      
 Compute Stats, Diag. #    223  SIuice    vol(   0 ): 3.513E+14  Parms: UU      M1      
 Compute Stats, Diag. #    224  SIvice    vol(   0 ): 3.508E+14  Parms: VV      M1      
 Compute Stats, Diag. #    225  SItaux    vol(   0 ): 3.513E+14  Parms: UU      U1      
 Compute Stats, Diag. #    226  SItauy    vol(   0 ): 3.508E+14  Parms: VV      U1      
 cg2d: Sum(rhs),rhsMax =  -1.61965496111036E+01  2.89586210761973E-01
 Compute Stats, Diag. #    214  SIarea    vol(   0 ): 3.580E+14  Parms: SM      M1      
 Compute Stats, Diag. #    217  SIheff    vol(   0 ): 3.580E+14  Parms: SM      M1      
 Compute Stats, Diag. #    219  SIhsnow   vol(   0 ): 3.580E+14  Parms: SM      M1      
 Compute Stats, Diag. #     83  sIceLoad  vol(   0 ): 3.580E+14  Parms: SM      U1      
 Compute Stats, Diag. #    223  SIuice    vol(   0 ): 3.513E+14  Parms: UU      M1      
 Compute Stats, Diag. #    224  SIvice    vol(   0 ): 3.508E+14  Parms: VV      M1      
 Compute Stats, Diag. #    225  SItaux    vol(   0 ): 3.513E+14  Parms: UU      U1      
 Compute Stats, Diag. #    226  SItauy    vol(   0 ): 3.508E+14  Parms: VV      U1      
 cg2d: Sum(rhs),rhsMax =  -1.63262372952126E+01  2.89608649907216E-01
 Compute Stats, Diag. #    214  SIarea    vol(   0 ): 3.580E+14  Parms: SM      M1      
 Compute Stats, Diag. #    217  SIheff    vol(   0 ): 3.580E+14  Parms: SM      M1      
 Compute Stats, Diag. #    219  SIhsnow   vol(   0 ): 3.580E+14  Parms: SM      M1      
 Compute Stats, Diag. #     83  sIceLoad  vol(   0 ): 3.580E+14  Parms: SM      U1      
 Compute Stats, Diag. #    223  SIuice    vol(   0 ): 3.513E+14  Parms: UU      M1      
 Compute Stats, Diag. #    224  SIvice    vol(   0 ): 3.508E+14  Parms: VV      M1      
 Compute Stats, Diag. #    225  SItaux    vol(   0 ): 3.513E+14  Parms: UU      U1      
 Compute Stats, Diag. #    226  SItauy    vol(   0 ): 3.508E+14  Parms: VV      U1      
 cg2d: Sum(rhs),rhsMax =  -1.64652177128534E+01  2.89628213990571E-01
 Compute Stats, Diag. #    214  SIarea    vol(   0 ): 3.580E+14  Parms: SM      M1      
 Compute Stats, Diag. #    217  SIheff    vol(   0 ): 3.580E+14  Parms: SM      M1      
 Compute Stats, Diag. #    219  SIhsnow   vol(   0 ): 3.580E+14  Parms: SM      M1      
 Compute Stats, Diag. #     83  sIceLoad  vol(   0 ): 3.580E+14  Parms: SM      U1      
 Compute Stats, Diag. #    223  SIuice    vol(   0 ): 3.513E+14  Parms: UU      M1      
 Compute Stats, Diag. #    224  SIvice    vol(   0 ): 3.508E+14  Parms: VV      M1      
 Compute Stats, Diag. #    225  SItaux    vol(   0 ): 3.513E+14  Parms: UU      U1      
 Compute Stats, Diag. #    226  SItauy    vol(   0 ): 3.508E+14  Parms: VV      U1      
 cg2d: Sum(rhs),rhsMax =  -1.66088296254600E+01  2.89644448036537E-01
(PID.TID 0000.0001)      cg2d_init_res =   4.45341113541967E-02
(PID.TID 0000.0001)      cg2d_iters(min,last) =      -1      25
(PID.TID 0000.0001)      cg2d_last_res =   2.11096012825598E-05
(PID.TID 0000.0001) // =======================================================
(PID.TID 0000.0001) // Begin MONITOR dynamic field statistics
(PID.TID 0000.0001) // =======================================================
(PID.TID 0000.0001) %MON time_tsnumber                =                   816
(PID.TID 0000.0001) %MON time_secondsf                =   7.3440000000000E+05
(PID.TID 0000.0001) %MON dynstat_eta_max              =   1.0291909578482E+00
(PID.TID 0000.0001) %MON dynstat_eta_min              =  -1.8452619104140E+00
(PID.TID 0000.0001) %MON dynstat_eta_mean             =   5.2539032613547E-04
(PID.TID 0000.0001) %MON dynstat_eta_sd               =   6.3173660719930E-01
(PID.TID 0000.0001) %MON dynstat_eta_del2             =   5.2087731324631E-05
(PID.TID 0000.0001) %MON dynstat_uvel_max             =   7.1234834940221E-01
(PID.TID 0000.0001) %MON dynstat_uvel_min             =  -7.1467019167124E-01
(PID.TID 0000.0001) %MON dynstat_uvel_mean            =   1.3367767954527E-03
(PID.TID 0000.0001) %MON dynstat_uvel_sd              =   1.8334110558152E-02
(PID.TID 0000.0001) %MON dynstat_uvel_del2            =   7.1675985110126E-06
(PID.TID 0000.0001) %MON dynstat_vvel_max             =   5.5935114541716E-01
(PID.TID 0000.0001) %MON dynstat_vvel_min             =  -8.6146177394745E-01
(PID.TID 0000.0001) %MON dynstat_vvel_mean            =   1.0724431305732E-03
(PID.TID 0000.0001) %MON dynstat_vvel_sd              =   1.9423078953919E-02
(PID.TID 0000.0001) %MON dynstat_vvel_del2            =   7.1840190601002E-06
(PID.TID 0000.0001) %MON dynstat_wvel_max             =   3.0223161598653E-04
(PID.TID 0000.0001) %MON dynstat_wvel_min             =  -8.0479046352987E-04
(PID.TID 0000.0001) %MON dynstat_wvel_mean            =   1.5399723327052E-09
(PID.TID 0000.0001) %MON dynstat_wvel_sd              =   1.7453477748854E-05
(PID.TID 0000.0001) %MON dynstat_wvel_del2            =   1.3482050673249E-08
(PID.TID 0000.0001) %MON dynstat_theta_max            =   3.2081310234978E+01
(PID.TID 0000.0001) %MON dynstat_theta_min            =  -2.0398056932839E+00
(PID.TID 0000.0001) %MON dynstat_theta_mean           =   3.5902465686993E+00
(PID.TID 0000.0001) %MON dynstat_theta_sd             =   4.4367249704139E+00
(PID.TID 0000.0001) %MON dynstat_theta_del2           =   9.1377488444143E-05
(PID.TID 0000.0001) %MON dynstat_salt_max             =   4.0711547308899E+01
(PID.TID 0000.0001) %MON dynstat_salt_min             =   5.5884428359540E+00
(PID.TID 0000.0001) %MON dynstat_salt_mean            =   3.4725567183443E+01
(PID.TID 0000.0001) %MON dynstat_salt_sd              =   3.7707477131306E-01
(PID.TID 0000.0001) %MON dynstat_salt_del2            =   3.5879746828731E-05
(PID.TID 0000.0001) %MON dynstat_sst_max              =   3.2081310234978E+01
(PID.TID 0000.0001) %MON dynstat_sst_min              =  -1.8063090399821E+00
(PID.TID 0000.0001) %MON dynstat_sst_mean             =   1.8468002526661E+01
(PID.TID 0000.0001) %MON dynstat_sst_sd               =   1.0258657951332E+01
(PID.TID 0000.0001) %MON dynstat_sst_del2             =   7.9488717367420E-04
(PID.TID 0000.0001) %MON dynstat_sss_max              =   3.9101282993217E+01
(PID.TID 0000.0001) %MON dynstat_sss_min              =   5.5884428359540E+00
(PID.TID 0000.0001) %MON dynstat_sss_mean             =   3.4700063418683E+01
(PID.TID 0000.0001) %MON dynstat_sss_sd               =   1.1743051780432E+00
(PID.TID 0000.0001) %MON dynstat_sss_del2             =   1.1022768849885E-03
(PID.TID 0000.0001) %MON forcing_qnet_max             =   1.3110750732422E+03
(PID.TID 0000.0001) %MON forcing_qnet_min             =  -7.2432142991183E+02
(PID.TID 0000.0001) %MON forcing_qnet_mean            =   4.3217045111279E+01
(PID.TID 0000.0001) %MON forcing_qnet_sd              =   1.6573272515066E+02
(PID.TID 0000.0001) %MON forcing_qnet_del2            =   3.0930699457277E-01
(PID.TID 0000.0001) %MON forcing_qsw_max              =   0.0000000000000E+00
(PID.TID 0000.0001) %MON forcing_qsw_min              =  -1.0979832695998E+02
(PID.TID 0000.0001) %MON forcing_qsw_mean             =  -1.3110266191689E+01
(PID.TID 0000.0001) %MON forcing_qsw_sd               =   2.4008196143920E+01
(PID.TID 0000.0001) %MON forcing_qsw_del2             =   1.8759410949004E-02
(PID.TID 0000.0001) %MON forcing_empmr_max            =   1.4663357287645E-03
(PID.TID 0000.0001) %MON forcing_empmr_min            =  -5.5549725890160E-02
(PID.TID 0000.0001) %MON forcing_empmr_mean           =  -5.1940529578653E-06
(PID.TID 0000.0001) %MON forcing_empmr_sd             =   2.7491731063077E-04
(PID.TID 0000.0001) %MON forcing_empmr_del2           =   3.3659067703577E-06
(PID.TID 0000.0001) %MON forcing_fu_max               =   1.3820372223854E+00
(PID.TID 0000.0001) %MON forcing_fu_min               =  -9.7031834721565E-01
(PID.TID 0000.0001) %MON forcing_fu_mean              =   2.7912218076760E-03
(PID.TID 0000.0001) %MON forcing_fu_sd                =   1.1399031233788E-01
(PID.TID 0000.0001) %MON forcing_fu_del2              =   1.4997337103840E-04
(PID.TID 0000.0001) %MON forcing_fv_max               =   8.8250565528870E-01
(PID.TID 0000.0001) %MON forcing_fv_min               =  -1.0453968048096E+00
(PID.TID 0000.0001) %MON forcing_fv_mean              =  -1.2743435849529E-02
(PID.TID 0000.0001) %MON forcing_fv_sd                =   1.0411125042250E-01
(PID.TID 0000.0001) %MON forcing_fv_del2              =   1.2290462427673E-04
(PID.TID 0000.0001) %MON trAdv_CFL_u_max              =   1.2507604373227E-02
(PID.TID 0000.0001) %MON trAdv_CFL_v_max              =   1.1907067878902E-02
(PID.TID 0000.0001) %MON trAdv_CFL_w_max              =   2.0200862298409E-02
(PID.TID 0000.0001) %MON advcfl_uvel_max              =   7.4318471603843E-03
(PID.TID 0000.0001) %MON advcfl_vvel_max              =   1.0874874708266E-02
(PID.TID 0000.0001) %MON advcfl_wvel_max              =   2.7082890960908E-02
(PID.TID 0000.0001) %MON advcfl_W_hf_max              =   2.7175550880480E-02
(PID.TID 0000.0001) %MON pe_b_mean                    =   5.2496530908256E-04
(PID.TID 0000.0001) %MON ke_max                       =   3.7556870101650E-01
(PID.TID 0000.0001) %MON ke_mean                      =   3.4541174672551E-04
(PID.TID 0000.0001) %MON ke_vol                       =   1.3349980634099E+18
(PID.TID 0000.0001) %MON vort_r_min                   =  -1.1520603342060E-05
(PID.TID 0000.0001) %MON vort_r_max                   =   1.7538739709777E-05
(PID.TID 0000.0001) %MON vort_a_mean                  =  -1.9727864647440E-05
(PID.TID 0000.0001) %MON vort_a_sd                    =   7.4542983121201E-05
(PID.TID 0000.0001) %MON vort_p_mean                  =  -2.1760530933357E-05
(PID.TID 0000.0001) %MON vort_p_sd                    =   9.7246311616517E-05
(PID.TID 0000.0001) %MON surfExpan_theta_mean         =  -1.2730449104976E-07
(PID.TID 0000.0001) %MON surfExpan_salt_mean          =   2.9358539859747E-08
(PID.TID 0000.0001) // =======================================================
(PID.TID 0000.0001) // End MONITOR dynamic field statistics
(PID.TID 0000.0001) // =======================================================
(PID.TID 0000.0001) // =======================================================
(PID.TID 0000.0001) // Begin MONITOR SEAICE statistics
(PID.TID 0000.0001) // =======================================================
(PID.TID 0000.0001) %MON seaice_tsnumber              =                   816
(PID.TID 0000.0001) %MON seaice_time_sec              =   7.3440000000000E+05
(PID.TID 0000.0001) %MON seaice_uice_max              =   4.0000000000000E-01
(PID.TID 0000.0001) %MON seaice_uice_min              =  -4.0000000000000E-01
(PID.TID 0000.0001) %MON seaice_uice_mean             =  -8.3054598624025E-03
(PID.TID 0000.0001) %MON seaice_uice_sd               =   1.9802383574176E-01
(PID.TID 0000.0001) %MON seaice_uice_del2             =   2.2931571122150E-04
(PID.TID 0000.0001) %MON seaice_vice_max              =   4.0000000000000E-01
(PID.TID 0000.0001) %MON seaice_vice_min              =  -4.0000000000000E-01
(PID.TID 0000.0001) %MON seaice_vice_mean             =  -2.1960776359499E-02
(PID.TID 0000.0001) %MON seaice_vice_sd               =   2.1302038025672E-01
(PID.TID 0000.0001) %MON seaice_vice_del2             =   2.3932563818061E-04
(PID.TID 0000.0001) %MON seaice_area_max              =   1.0000000000000E+00
(PID.TID 0000.0001) %MON seaice_area_min              =   0.0000000000000E+00
(PID.TID 0000.0001) %MON seaice_area_mean             =   6.5593895472583E-02
(PID.TID 0000.0001) %MON seaice_area_sd               =   2.2935124842664E-01
(PID.TID 0000.0001) %MON seaice_area_del2             =   3.8882170148458E-04
(PID.TID 0000.0001) %MON seaice_heff_max              =   2.4986200862215E+01
(PID.TID 0000.0001) %MON seaice_heff_min              =   0.0000000000000E+00
(PID.TID 0000.0001) %MON seaice_heff_mean             =   2.1238319950971E-01
(PID.TID 0000.0001) %MON seaice_heff_sd               =   1.0663559619329E+00
(PID.TID 0000.0001) %MON seaice_heff_del2             =   3.8368538654741E-03
(PID.TID 0000.0001) %MON seaice_hsnow_max             =   8.2529135241930E+00
(PID.TID 0000.0001) %MON seaice_hsnow_min             =   0.0000000000000E+00
(PID.TID 0000.0001) %MON seaice_hsnow_mean            =   2.4004738694737E-02
(PID.TID 0000.0001) %MON seaice_hsnow_sd              =   1.5608979485611E-01
(PID.TID 0000.0001) %MON seaice_hsnow_del2            =   1.2387001431236E-03
(PID.TID 0000.0001) // =======================================================
(PID.TID 0000.0001) // End MONITOR SEAICE statistics
(PID.TID 0000.0001) // =======================================================
 Computing Diagnostic #     86  oceQnet      Counter:       4   Parms: SM      U1      
 Computing Diagnostic #     87  oceQsw       Counter:       4   Parms: SM      U1      
 Computing Diagnostic #     84  oceFWflx     Counter:       4   Parms: SM      U1      
 Computing Diagnostic #     85  oceSflux     Counter:       4   Parms: SM      U1      
 Computing Diagnostic #     80  oceTAUX      Counter:       4   Parms: UU      U1      
           Vector  Mate for  oceTAUX      Diagnostic #     81  oceTAUY  exists 
 Computing Diagnostic #     81  oceTAUY      Counter:       4   Parms: VV      U1      
           Vector  Mate for  oceTAUY      Diagnostic #     80  oceTAUX  exists 
 Computing Diagnostic #     26  THETA        Counter:       4   Parms: SMR     MR      
 Computing Diagnostic #     27  SALT         Counter:       4   Parms: SMR     MR      
 Computing Diagnostic #     30  UVEL         Counter:       4   Parms: UUR     MR      
           Vector  Mate for  UVEL         Diagnostic #     31  VVEL     exists 
 Computing Diagnostic #     31  VVEL         Counter:       4   Parms: VVR     MR      
           Vector  Mate for  VVEL         Diagnostic #     30  UVEL     exists 
 Computing Diagnostic #    214  SIarea       Counter:       4   Parms: SM      M1      
 Computing Diagnostic #    217  SIheff       Counter:       4   Parms: SM      M1      
 Computing Diagnostic #    219  SIhsnow      Counter:       4   Parms: SM      M1      
 Computing Diagnostic #     83  sIceLoad     Counter:       4   Parms: SM      U1      
 Computing Diagnostic #    223  SIuice       Counter:       4   Parms: UU      M1      
           Vector  Mate for  SIuice       Diagnostic #    224  SIvice   exists 
 Computing Diagnostic #    224  SIvice       Counter:       4   Parms: VV      M1      
           Vector  Mate for  SIvice       Diagnostic #    223  SIuice   exists 
 Computing Diagnostic #    225  SItaux       Counter:       4   Parms: UU      U1      
           Vector  Mate for  SItaux       Diagnostic #    226  SItauy   exists 
 Computing Diagnostic #    226  SItauy       Counter:       4   Parms: VV      U1      
           Vector  Mate for  SItauy       Diagnostic #    225  SItaux   exists 
 Computing Diagnostic #    285  SIareaN      Counter:       4   Parms: SM      MX      
 Computing Diagnostic #    284  SIheffN      Counter:       4   Parms: SM      MX      
 Computing Diagnostic #    286  SIhsnowN     Counter:       4   Parms: SM      MX      
 Compute Stats, Diag. #    214  SIarea    vol(   0 ): 3.580E+14  Parms: SM      M1      
 Compute Stats, Diag. #    217  SIheff    vol(   0 ): 3.580E+14  Parms: SM      M1      
 Compute Stats, Diag. #    219  SIhsnow   vol(   0 ): 3.580E+14  Parms: SM      M1      
 Compute Stats, Diag. #     83  sIceLoad  vol(   0 ): 3.580E+14  Parms: SM      U1      
 Compute Stats, Diag. #    223  SIuice    vol(   0 ): 3.513E+14  Parms: UU      M1      
 Compute Stats, Diag. #    224  SIvice    vol(   0 ): 3.508E+14  Parms: VV      M1      
 Compute Stats, Diag. #    225  SItaux    vol(   0 ): 3.513E+14  Parms: UU      U1      
 Compute Stats, Diag. #    226  SItauy    vol(   0 ): 3.508E+14  Parms: VV      U1      
 cg2d: Sum(rhs),rhsMax =  -1.67527018727533E+01  2.89656846902567E-01
 Compute Stats, Diag. #    214  SIarea    vol(   0 ): 3.580E+14  Parms: SM      M1      
 Compute Stats, Diag. #    217  SIheff    vol(   0 ): 3.580E+14  Parms: SM      M1      
 Compute Stats, Diag. #    219  SIhsnow   vol(   0 ): 3.580E+14  Parms: SM      M1      
 Compute Stats, Diag. #     83  sIceLoad  vol(   0 ): 3.580E+14  Parms: SM      U1      
 Compute Stats, Diag. #    223  SIuice    vol(   0 ): 3.513E+14  Parms: UU      M1      
 Compute Stats, Diag. #    224  SIvice    vol(   0 ): 3.508E+14  Parms: VV      M1      
 Compute Stats, Diag. #    225  SItaux    vol(   0 ): 3.513E+14  Parms: UU      U1      
 Compute Stats, Diag. #    226  SItauy    vol(   0 ): 3.508E+14  Parms: VV      U1      
 cg2d: Sum(rhs),rhsMax =  -1.68937013918546E+01  2.89665291703293E-01
 Compute Stats, Diag. #    214  SIarea    vol(   0 ): 3.580E+14  Parms: SM      M1      
 Compute Stats, Diag. #    217  SIheff    vol(   0 ): 3.580E+14  Parms: SM      M1      
 Compute Stats, Diag. #    219  SIhsnow   vol(   0 ): 3.580E+14  Parms: SM      M1      
 Compute Stats, Diag. #     83  sIceLoad  vol(   0 ): 3.580E+14  Parms: SM      U1      
 Compute Stats, Diag. #    223  SIuice    vol(   0 ): 3.513E+14  Parms: UU      M1      
 Compute Stats, Diag. #    224  SIvice    vol(   0 ): 3.508E+14  Parms: VV      M1      
 Compute Stats, Diag. #    225  SItaux    vol(   0 ): 3.513E+14  Parms: UU      U1      
 Compute Stats, Diag. #    226  SItauy    vol(   0 ): 3.508E+14  Parms: VV      U1      
 cg2d: Sum(rhs),rhsMax =  -1.70380509545819E+01  2.89669454060270E-01
 Compute Stats, Diag. #    214  SIarea    vol(   0 ): 3.580E+14  Parms: SM      M1      
 Compute Stats, Diag. #    217  SIheff    vol(   0 ): 3.580E+14  Parms: SM      M1      
 Compute Stats, Diag. #    219  SIhsnow   vol(   0 ): 3.580E+14  Parms: SM      M1      
 Compute Stats, Diag. #     83  sIceLoad  vol(   0 ): 3.580E+14  Parms: SM      U1      
 Compute Stats, Diag. #    223  SIuice    vol(   0 ): 3.513E+14  Parms: UU      M1      
 Compute Stats, Diag. #    224  SIvice    vol(   0 ): 3.508E+14  Parms: VV      M1      
 Compute Stats, Diag. #    225  SItaux    vol(   0 ): 3.513E+14  Parms: UU      U1      
 Compute Stats, Diag. #    226  SItauy    vol(   0 ): 3.508E+14  Parms: VV      U1      
 cg2d: Sum(rhs),rhsMax =  -1.71900505047383E+01  2.89669937937883E-01
 Computing Diagnostic #     86  oceQnet      Counter:       4   Parms: SM      U1      
 Computing Diagnostic #     87  oceQsw       Counter:       4   Parms: SM      U1      
 Computing Diagnostic #     84  oceFWflx     Counter:       4   Parms: SM      U1      
 Computing Diagnostic #     85  oceSflux     Counter:       4   Parms: SM      U1      
 Computing Diagnostic #     80  oceTAUX      Counter:       4   Parms: UU      U1      
           Vector  Mate for  oceTAUX      Diagnostic #     81  oceTAUY  exists 
 Computing Diagnostic #     81  oceTAUY      Counter:       4   Parms: VV      U1      
           Vector  Mate for  oceTAUY      Diagnostic #     80  oceTAUX  exists 
 Computing Diagnostic #     26  THETA        Counter:       4   Parms: SMR     MR      
 Computing Diagnostic #     27  SALT         Counter:       4   Parms: SMR     MR      
 Computing Diagnostic #     30  UVEL         Counter:       4   Parms: UUR     MR      
           Vector  Mate for  UVEL         Diagnostic #     31  VVEL     exists 
 Computing Diagnostic #     31  VVEL         Counter:       4   Parms: VVR     MR      
           Vector  Mate for  VVEL         Diagnostic #     30  UVEL     exists 
 Computing Diagnostic #    214  SIarea       Counter:       4   Parms: SM      M1      
 Computing Diagnostic #    217  SIheff       Counter:       4   Parms: SM      M1      
 Computing Diagnostic #    219  SIhsnow      Counter:       4   Parms: SM      M1      
 Computing Diagnostic #     83  sIceLoad     Counter:       4   Parms: SM      U1      
 Computing Diagnostic #    223  SIuice       Counter:       4   Parms: UU      M1      
           Vector  Mate for  SIuice       Diagnostic #    224  SIvice   exists 
 Computing Diagnostic #    224  SIvice       Counter:       4   Parms: VV      M1      
           Vector  Mate for  SIvice       Diagnostic #    223  SIuice   exists 
 Computing Diagnostic #    225  SItaux       Counter:       4   Parms: UU      U1      
           Vector  Mate for  SItaux       Diagnostic #    226  SItauy   exists 
 Computing Diagnostic #    226  SItauy       Counter:       4   Parms: VV      U1      
           Vector  Mate for  SItauy       Diagnostic #    225  SItaux   exists 
 Computing Diagnostic #    285  SIareaN      Counter:       4   Parms: SM      MX      
 Computing Diagnostic #    284  SIheffN      Counter:       4   Parms: SM      MX      
 Computing Diagnostic #    286  SIhsnowN     Counter:       4   Parms: SM      MX      
 Compute Stats, Diag. #    214  SIarea    vol(   0 ): 3.580E+14  Parms: SM      M1      
 Compute Stats, Diag. #    217  SIheff    vol(   0 ): 3.580E+14  Parms: SM      M1      
 Compute Stats, Diag. #    219  SIhsnow   vol(   0 ): 3.580E+14  Parms: SM      M1      
 Compute Stats, Diag. #     83  sIceLoad  vol(   0 ): 3.580E+14  Parms: SM      U1      
 Compute Stats, Diag. #    223  SIuice    vol(   0 ): 3.513E+14  Parms: UU      M1      
 Compute Stats, Diag. #    224  SIvice    vol(   0 ): 3.508E+14  Parms: VV      M1      
 Compute Stats, Diag. #    225  SItaux    vol(   0 ): 3.513E+14  Parms: UU      U1      
 Compute Stats, Diag. #    226  SItauy    vol(   0 ): 3.508E+14  Parms: VV      U1      
 cg2d: Sum(rhs),rhsMax =  -1.73465484279401E+01  2.89665933913054E-01
 Compute Stats, Diag. #    214  SIarea    vol(   0 ): 3.580E+14  Parms: SM      M1      
 Compute Stats, Diag. #    217  SIheff    vol(   0 ): 3.580E+14  Parms: SM      M1      
 Compute Stats, Diag. #    219  SIhsnow   vol(   0 ): 3.580E+14  Parms: SM      M1      
 Compute Stats, Diag. #     83  sIceLoad  vol(   0 ): 3.580E+14  Parms: SM      U1      
 Compute Stats, Diag. #    223  SIuice    vol(   0 ): 3.513E+14  Parms: UU      M1      
 Compute Stats, Diag. #    224  SIvice    vol(   0 ): 3.508E+14  Parms: VV      M1      
 Compute Stats, Diag. #    225  SItaux    vol(   0 ): 3.513E+14  Parms: UU      U1      
 Compute Stats, Diag. #    226  SItauy    vol(   0 ): 3.508E+14  Parms: VV      U1      
 cg2d: Sum(rhs),rhsMax =  -1.75090154070217E+01  2.89658187956621E-01
 Compute Stats, Diag. #    214  SIarea    vol(   0 ): 3.580E+14  Parms: SM      M1      
 Compute Stats, Diag. #    217  SIheff    vol(   0 ): 3.580E+14  Parms: SM      M1      
 Compute Stats, Diag. #    219  SIhsnow   vol(   0 ): 3.580E+14  Parms: SM      M1      
 Compute Stats, Diag. #     83  sIceLoad  vol(   0 ): 3.580E+14  Parms: SM      U1      
 Compute Stats, Diag. #    223  SIuice    vol(   0 ): 3.513E+14  Parms: UU      M1      
 Compute Stats, Diag. #    224  SIvice    vol(   0 ): 3.508E+14  Parms: VV      M1      
 Compute Stats, Diag. #    225  SItaux    vol(   0 ): 3.513E+14  Parms: UU      U1      
 Compute Stats, Diag. #    226  SItauy    vol(   0 ): 3.508E+14  Parms: VV      U1      
 cg2d: Sum(rhs),rhsMax =  -1.76636033237035E+01  2.89646686441673E-01
 Compute Stats, Diag. #    214  SIarea    vol(   0 ): 3.580E+14  Parms: SM      M1      
 Compute Stats, Diag. #    217  SIheff    vol(   0 ): 3.580E+14  Parms: SM      M1      
 Compute Stats, Diag. #    219  SIhsnow   vol(   0 ): 3.580E+14  Parms: SM      M1      
 Compute Stats, Diag. #     83  sIceLoad  vol(   0 ): 3.580E+14  Parms: SM      U1      
 Compute Stats, Diag. #    223  SIuice    vol(   0 ): 3.513E+14  Parms: UU      M1      
 Compute Stats, Diag. #    224  SIvice    vol(   0 ): 3.508E+14  Parms: VV      M1      
 Compute Stats, Diag. #    225  SItaux    vol(   0 ): 3.513E+14  Parms: UU      U1      
 Compute Stats, Diag. #    226  SItauy    vol(   0 ): 3.508E+14  Parms: VV      U1      
 cg2d: Sum(rhs),rhsMax =  -1.78211244666032E+01  2.89631648994629E-01
(PID.TID 0000.0001)      cg2d_init_res =   4.57815480802064E-02
(PID.TID 0000.0001)      cg2d_iters(min,last) =      -1      24
(PID.TID 0000.0001)      cg2d_last_res =   2.73036379739242E-05
(PID.TID 0000.0001) // =======================================================
(PID.TID 0000.0001) // Begin MONITOR dynamic field statistics
(PID.TID 0000.0001) // =======================================================
(PID.TID 0000.0001) %MON time_tsnumber                =                   824
(PID.TID 0000.0001) %MON time_secondsf                =   7.4160000000000E+05
(PID.TID 0000.0001) %MON dynstat_eta_max              =   1.0288162965235E+00
(PID.TID 0000.0001) %MON dynstat_eta_min              =  -1.8448782000809E+00
(PID.TID 0000.0001) %MON dynstat_eta_mean             =   5.6373908377367E-04
(PID.TID 0000.0001) %MON dynstat_eta_sd               =   6.3138282288235E-01
(PID.TID 0000.0001) %MON dynstat_eta_del2             =   5.2091756034883E-05
(PID.TID 0000.0001) %MON dynstat_uvel_max             =   7.1390923027933E-01
(PID.TID 0000.0001) %MON dynstat_uvel_min             =  -7.1811187689283E-01
(PID.TID 0000.0001) %MON dynstat_uvel_mean            =   1.3340765884535E-03
(PID.TID 0000.0001) %MON dynstat_uvel_sd              =   1.8325360273283E-02
(PID.TID 0000.0001) %MON dynstat_uvel_del2            =   7.1623495491360E-06
(PID.TID 0000.0001) %MON dynstat_vvel_max             =   5.4282447652578E-01
(PID.TID 0000.0001) %MON dynstat_vvel_min             =  -8.6019148212240E-01
(PID.TID 0000.0001) %MON dynstat_vvel_mean            =   1.0632230019706E-03
(PID.TID 0000.0001) %MON dynstat_vvel_sd              =   1.9412764704048E-02
(PID.TID 0000.0001) %MON dynstat_vvel_del2            =   7.1774369925673E-06
(PID.TID 0000.0001) %MON dynstat_wvel_max             =   3.0288442423216E-04
(PID.TID 0000.0001) %MON dynstat_wvel_min             =  -8.0007260956348E-04
(PID.TID 0000.0001) %MON dynstat_wvel_mean            =   2.7327734173276E-09
(PID.TID 0000.0001) %MON dynstat_wvel_sd              =   1.7524690654885E-05
(PID.TID 0000.0001) %MON dynstat_wvel_del2            =   1.3435421677528E-08
(PID.TID 0000.0001) %MON dynstat_theta_max            =   3.2054233393077E+01
(PID.TID 0000.0001) %MON dynstat_theta_min            =  -2.0397994189365E+00
(PID.TID 0000.0001) %MON dynstat_theta_mean           =   3.5902298779869E+00
(PID.TID 0000.0001) %MON dynstat_theta_sd             =   4.4366730073603E+00
(PID.TID 0000.0001) %MON dynstat_theta_del2           =   9.1323980579441E-05
(PID.TID 0000.0001) %MON dynstat_salt_max             =   4.0711547050605E+01
(PID.TID 0000.0001) %MON dynstat_salt_min             =   5.6664473842229E+00
(PID.TID 0000.0001) %MON dynstat_salt_mean            =   3.4725566847952E+01
(PID.TID 0000.0001) %MON dynstat_salt_sd              =   3.7707545208851E-01
(PID.TID 0000.0001) %MON dynstat_salt_del2            =   3.5908971251520E-05
(PID.TID 0000.0001) %MON dynstat_sst_max              =   3.2054233393077E+01
(PID.TID 0000.0001) %MON dynstat_sst_min              =  -1.8069398347587E+00
(PID.TID 0000.0001) %MON dynstat_sst_mean             =   1.8464703299494E+01
(PID.TID 0000.0001) %MON dynstat_sst_sd               =   1.0259196821760E+01
(PID.TID 0000.0001) %MON dynstat_sst_del2             =   7.9363519295884E-04
(PID.TID 0000.0001) %MON dynstat_sss_max              =   3.9101096028380E+01
(PID.TID 0000.0001) %MON dynstat_sss_min              =   5.6664473842229E+00
(PID.TID 0000.0001) %MON dynstat_sss_mean             =   3.4700063483674E+01
(PID.TID 0000.0001) %MON dynstat_sss_sd               =   1.1745742806193E+00
(PID.TID 0000.0001) %MON dynstat_sss_del2             =   1.1032146768408E-03
(PID.TID 0000.0001) %MON forcing_qnet_max             =   8.0491180419922E+02
(PID.TID 0000.0001) %MON forcing_qnet_min             =  -4.7875023997955E+03
(PID.TID 0000.0001) %MON forcing_qnet_mean            =   2.9182993294420E+01
(PID.TID 0000.0001) %MON forcing_qnet_sd              =   1.7478257422067E+02
(PID.TID 0000.0001) %MON forcing_qnet_del2            =   3.4880806627396E-01
(PID.TID 0000.0001) %MON forcing_qsw_max              =   0.0000000000000E+00
(PID.TID 0000.0001) %MON forcing_qsw_min              =  -9.9645519436501E+01
(PID.TID 0000.0001) %MON forcing_qsw_mean             =  -1.4147669769468E+01
(PID.TID 0000.0001) %MON forcing_qsw_sd               =   2.3832925173130E+01
(PID.TID 0000.0001) %MON forcing_qsw_del2             =   2.0628850191409E-02
(PID.TID 0000.0001) %MON forcing_empmr_max            =   1.0173883056268E-03
(PID.TID 0000.0001) %MON forcing_empmr_min            =  -4.8997849225998E-02
(PID.TID 0000.0001) %MON forcing_empmr_mean           =  -5.6971120525718E-06
(PID.TID 0000.0001) %MON forcing_empmr_sd             =   2.4833542832373E-04
(PID.TID 0000.0001) %MON forcing_empmr_del2           =   3.0314038120920E-06
(PID.TID 0000.0001) %MON forcing_fu_max               =   1.6340719461441E+00
(PID.TID 0000.0001) %MON forcing_fu_min               =  -8.6791488528252E-01
(PID.TID 0000.0001) %MON forcing_fu_mean              =   2.5119177323631E-03
(PID.TID 0000.0001) %MON forcing_fu_sd                =   1.1489354318173E-01
(PID.TID 0000.0001) %MON forcing_fu_del2              =   1.5565142625629E-04
(PID.TID 0000.0001) %MON forcing_fv_max               =   8.5066622495651E-01
(PID.TID 0000.0001) %MON forcing_fv_min               =  -9.6661981940269E-01
(PID.TID 0000.0001) %MON forcing_fv_mean              =  -1.2016771240271E-02
(PID.TID 0000.0001) %MON forcing_fv_sd                =   1.0356969440885E-01
(PID.TID 0000.0001) %MON forcing_fv_del2              =   1.2097619173020E-04
(PID.TID 0000.0001) %MON trAdv_CFL_u_max              =   1.2515845927266E-02
(PID.TID 0000.0001) %MON trAdv_CFL_v_max              =   1.1807118630281E-02
(PID.TID 0000.0001) %MON trAdv_CFL_w_max              =   2.0186580678220E-02
(PID.TID 0000.0001) %MON advcfl_uvel_max              =   7.4067116721798E-03
(PID.TID 0000.0001) %MON advcfl_vvel_max              =   1.0910918872831E-02
(PID.TID 0000.0001) %MON advcfl_wvel_max              =   2.7259598180894E-02
(PID.TID 0000.0001) %MON advcfl_W_hf_max              =   2.7352659469387E-02
(PID.TID 0000.0001) %MON pe_b_mean                    =   5.2437754295275E-04
(PID.TID 0000.0001) %MON ke_max                       =   3.7424649885182E-01
(PID.TID 0000.0001) %MON ke_mean                      =   3.4505093091125E-04
(PID.TID 0000.0001) %MON ke_vol                       =   1.3349980769818E+18
(PID.TID 0000.0001) %MON vort_r_min                   =  -1.1471944861905E-05
(PID.TID 0000.0001) %MON vort_r_max                   =   1.7716700063710E-05
(PID.TID 0000.0001) %MON vort_a_mean                  =  -1.9727864647440E-05
(PID.TID 0000.0001) %MON vort_a_sd                    =   7.4542977610750E-05
(PID.TID 0000.0001) %MON vort_p_mean                  =  -2.1760530738123E-05
(PID.TID 0000.0001) %MON vort_p_sd                    =   9.7246368689725E-05
(PID.TID 0000.0001) %MON surfExpan_theta_mean         =  -1.2760124860734E-07
(PID.TID 0000.0001) %MON surfExpan_salt_mean          =   2.4810384912527E-08
(PID.TID 0000.0001) // =======================================================
(PID.TID 0000.0001) // End MONITOR dynamic field statistics
(PID.TID 0000.0001) // =======================================================
(PID.TID 0000.0001) // =======================================================
(PID.TID 0000.0001) // Begin MONITOR SEAICE statistics
(PID.TID 0000.0001) // =======================================================
(PID.TID 0000.0001) %MON seaice_tsnumber              =                   824
(PID.TID 0000.0001) %MON seaice_time_sec              =   7.4160000000000E+05
(PID.TID 0000.0001) %MON seaice_uice_max              =   4.0000000000000E-01
(PID.TID 0000.0001) %MON seaice_uice_min              =  -4.0000000000000E-01
(PID.TID 0000.0001) %MON seaice_uice_mean             =  -8.3054598624025E-03
(PID.TID 0000.0001) %MON seaice_uice_sd               =   1.9802383574176E-01
(PID.TID 0000.0001) %MON seaice_uice_del2             =   2.2931571122150E-04
(PID.TID 0000.0001) %MON seaice_vice_max              =   4.0000000000000E-01
(PID.TID 0000.0001) %MON seaice_vice_min              =  -4.0000000000000E-01
(PID.TID 0000.0001) %MON seaice_vice_mean             =  -2.1960776359499E-02
(PID.TID 0000.0001) %MON seaice_vice_sd               =   2.1302038025672E-01
(PID.TID 0000.0001) %MON seaice_vice_del2             =   2.3932563818061E-04
(PID.TID 0000.0001) %MON seaice_area_max              =   1.0000000000000E+00
(PID.TID 0000.0001) %MON seaice_area_min              =   0.0000000000000E+00
(PID.TID 0000.0001) %MON seaice_area_mean             =   6.5563497444321E-02
(PID.TID 0000.0001) %MON seaice_area_sd               =   2.2930006504399E-01
(PID.TID 0000.0001) %MON seaice_area_del2             =   3.8844745141099E-04
(PID.TID 0000.0001) %MON seaice_heff_max              =   2.4984266265412E+01
(PID.TID 0000.0001) %MON seaice_heff_min              =   0.0000000000000E+00
(PID.TID 0000.0001) %MON seaice_heff_mean             =   2.1235353295235E-01
(PID.TID 0000.0001) %MON seaice_heff_sd               =   1.0663287947516E+00
(PID.TID 0000.0001) %MON seaice_heff_del2             =   3.8361935109751E-03
(PID.TID 0000.0001) %MON seaice_hsnow_max             =   8.2522757669212E+00
(PID.TID 0000.0001) %MON seaice_hsnow_min             =   0.0000000000000E+00
(PID.TID 0000.0001) %MON seaice_hsnow_mean            =   2.4000432673349E-02
(PID.TID 0000.0001) %MON seaice_hsnow_sd              =   1.5607834123576E-01
(PID.TID 0000.0001) %MON seaice_hsnow_del2            =   1.2385849531691E-03
(PID.TID 0000.0001) // =======================================================
(PID.TID 0000.0001) // End MONITOR SEAICE statistics
(PID.TID 0000.0001) // =======================================================
 Computing Diagnostic #     86  oceQnet      Counter:       4   Parms: SM      U1      
 Computing Diagnostic #     87  oceQsw       Counter:       4   Parms: SM      U1      
 Computing Diagnostic #     84  oceFWflx     Counter:       4   Parms: SM      U1      
 Computing Diagnostic #     85  oceSflux     Counter:       4   Parms: SM      U1      
 Computing Diagnostic #     80  oceTAUX      Counter:       4   Parms: UU      U1      
           Vector  Mate for  oceTAUX      Diagnostic #     81  oceTAUY  exists 
 Computing Diagnostic #     81  oceTAUY      Counter:       4   Parms: VV      U1      
           Vector  Mate for  oceTAUY      Diagnostic #     80  oceTAUX  exists 
 Computing Diagnostic #     26  THETA        Counter:       4   Parms: SMR     MR      
 Computing Diagnostic #     27  SALT         Counter:       4   Parms: SMR     MR      
 Computing Diagnostic #     30  UVEL         Counter:       4   Parms: UUR     MR      
           Vector  Mate for  UVEL         Diagnostic #     31  VVEL     exists 
 Computing Diagnostic #     31  VVEL         Counter:       4   Parms: VVR     MR      
           Vector  Mate for  VVEL         Diagnostic #     30  UVEL     exists 
 Computing Diagnostic #    214  SIarea       Counter:       4   Parms: SM      M1      
 Computing Diagnostic #    217  SIheff       Counter:       4   Parms: SM      M1      
 Computing Diagnostic #    219  SIhsnow      Counter:       4   Parms: SM      M1      
 Computing Diagnostic #     83  sIceLoad     Counter:       4   Parms: SM      U1      
 Computing Diagnostic #    223  SIuice       Counter:       4   Parms: UU      M1      
           Vector  Mate for  SIuice       Diagnostic #    224  SIvice   exists 
 Computing Diagnostic #    224  SIvice       Counter:       4   Parms: VV      M1      
           Vector  Mate for  SIvice       Diagnostic #    223  SIuice   exists 
 Computing Diagnostic #    225  SItaux       Counter:       4   Parms: UU      U1      
           Vector  Mate for  SItaux       Diagnostic #    226  SItauy   exists 
 Computing Diagnostic #    226  SItauy       Counter:       4   Parms: VV      U1      
           Vector  Mate for  SItauy       Diagnostic #    225  SItaux   exists 
 Computing Diagnostic #    285  SIareaN      Counter:       4   Parms: SM      MX      
 Computing Diagnostic #    284  SIheffN      Counter:       4   Parms: SM      MX      
 Computing Diagnostic #    286  SIhsnowN     Counter:       4   Parms: SM      MX      
 Compute Stats, Diag. #    214  SIarea    vol(   0 ): 3.580E+14  Parms: SM      M1      
 Compute Stats, Diag. #    217  SIheff    vol(   0 ): 3.580E+14  Parms: SM      M1      
 Compute Stats, Diag. #    219  SIhsnow   vol(   0 ): 3.580E+14  Parms: SM      M1      
 Compute Stats, Diag. #     83  sIceLoad  vol(   0 ): 3.580E+14  Parms: SM      U1      
 Compute Stats, Diag. #    223  SIuice    vol(   0 ): 3.513E+14  Parms: UU      M1      
 Compute Stats, Diag. #    224  SIvice    vol(   0 ): 3.508E+14  Parms: VV      M1      
 Compute Stats, Diag. #    225  SItaux    vol(   0 ): 3.513E+14  Parms: UU      U1      
 Compute Stats, Diag. #    226  SItauy    vol(   0 ): 3.508E+14  Parms: VV      U1      
 cg2d: Sum(rhs),rhsMax =  -1.79730382719064E+01  2.89613379784737E-01
 Compute Stats, Diag. #    214  SIarea    vol(   0 ): 3.580E+14  Parms: SM      M1      
 Compute Stats, Diag. #    217  SIheff    vol(   0 ): 3.580E+14  Parms: SM      M1      
 Compute Stats, Diag. #    219  SIhsnow   vol(   0 ): 3.580E+14  Parms: SM      M1      
 Compute Stats, Diag. #     83  sIceLoad  vol(   0 ): 3.580E+14  Parms: SM      U1      
 Compute Stats, Diag. #    223  SIuice    vol(   0 ): 3.513E+14  Parms: UU      M1      
 Compute Stats, Diag. #    224  SIvice    vol(   0 ): 3.508E+14  Parms: VV      M1      
 Compute Stats, Diag. #    225  SItaux    vol(   0 ): 3.513E+14  Parms: UU      U1      
 Compute Stats, Diag. #    226  SItauy    vol(   0 ): 3.508E+14  Parms: VV      U1      
 cg2d: Sum(rhs),rhsMax =  -1.81306462358745E+01  2.89591738478851E-01
 Compute Stats, Diag. #    214  SIarea    vol(   0 ): 3.580E+14  Parms: SM      M1      
 Compute Stats, Diag. #    217  SIheff    vol(   0 ): 3.580E+14  Parms: SM      M1      
 Compute Stats, Diag. #    219  SIhsnow   vol(   0 ): 3.580E+14  Parms: SM      M1      
 Compute Stats, Diag. #     83  sIceLoad  vol(   0 ): 3.580E+14  Parms: SM      U1      
 Compute Stats, Diag. #    223  SIuice    vol(   0 ): 3.513E+14  Parms: UU      M1      
 Compute Stats, Diag. #    224  SIvice    vol(   0 ): 3.508E+14  Parms: VV      M1      
 Compute Stats, Diag. #    225  SItaux    vol(   0 ): 3.513E+14  Parms: UU      U1      
 Compute Stats, Diag. #    226  SItauy    vol(   0 ): 3.508E+14  Parms: VV      U1      
 cg2d: Sum(rhs),rhsMax =  -1.82938026387635E+01  2.89567485095885E-01
 Compute Stats, Diag. #    214  SIarea    vol(   0 ): 3.580E+14  Parms: SM      M1      
 Compute Stats, Diag. #    217  SIheff    vol(   0 ): 3.580E+14  Parms: SM      M1      
 Compute Stats, Diag. #    219  SIhsnow   vol(   0 ): 3.580E+14  Parms: SM      M1      
 Compute Stats, Diag. #     83  sIceLoad  vol(   0 ): 3.580E+14  Parms: SM      U1      
 Compute Stats, Diag. #    223  SIuice    vol(   0 ): 3.513E+14  Parms: UU      M1      
 Compute Stats, Diag. #    224  SIvice    vol(   0 ): 3.508E+14  Parms: VV      M1      
 Compute Stats, Diag. #    225  SItaux    vol(   0 ): 3.513E+14  Parms: UU      U1      
 Compute Stats, Diag. #    226  SItauy    vol(   0 ): 3.508E+14  Parms: VV      U1      
 cg2d: Sum(rhs),rhsMax =  -1.84561411882709E+01  2.89541050209538E-01
 Computing Diagnostic #     86  oceQnet      Counter:       4   Parms: SM      U1      
 Computing Diagnostic #     87  oceQsw       Counter:       4   Parms: SM      U1      
 Computing Diagnostic #     84  oceFWflx     Counter:       4   Parms: SM      U1      
 Computing Diagnostic #     85  oceSflux     Counter:       4   Parms: SM      U1      
 Computing Diagnostic #     80  oceTAUX      Counter:       4   Parms: UU      U1      
           Vector  Mate for  oceTAUX      Diagnostic #     81  oceTAUY  exists 
 Computing Diagnostic #     81  oceTAUY      Counter:       4   Parms: VV      U1      
           Vector  Mate for  oceTAUY      Diagnostic #     80  oceTAUX  exists 
 Computing Diagnostic #     26  THETA        Counter:       4   Parms: SMR     MR      
 Computing Diagnostic #     27  SALT         Counter:       4   Parms: SMR     MR      
 Computing Diagnostic #     30  UVEL         Counter:       4   Parms: UUR     MR      
           Vector  Mate for  UVEL         Diagnostic #     31  VVEL     exists 
 Computing Diagnostic #     31  VVEL         Counter:       4   Parms: VVR     MR      
           Vector  Mate for  VVEL         Diagnostic #     30  UVEL     exists 
 Computing Diagnostic #    214  SIarea       Counter:       4   Parms: SM      M1      
 Computing Diagnostic #    217  SIheff       Counter:       4   Parms: SM      M1      
 Computing Diagnostic #    219  SIhsnow      Counter:       4   Parms: SM      M1      
 Computing Diagnostic #     83  sIceLoad     Counter:       4   Parms: SM      U1      
 Computing Diagnostic #    223  SIuice       Counter:       4   Parms: UU      M1      
           Vector  Mate for  SIuice       Diagnostic #    224  SIvice   exists 
 Computing Diagnostic #    224  SIvice       Counter:       4   Parms: VV      M1      
           Vector  Mate for  SIvice       Diagnostic #    223  SIuice   exists 
 Computing Diagnostic #    225  SItaux       Counter:       4   Parms: UU      U1      
           Vector  Mate for  SItaux       Diagnostic #    226  SItauy   exists 
 Computing Diagnostic #    226  SItauy       Counter:       4   Parms: VV      U1      
           Vector  Mate for  SItauy       Diagnostic #    225  SItaux   exists 
 Computing Diagnostic #    285  SIareaN      Counter:       4   Parms: SM      MX      
 Computing Diagnostic #    284  SIheffN      Counter:       4   Parms: SM      MX      
 Computing Diagnostic #    286  SIhsnowN     Counter:       4   Parms: SM      MX      
 Compute Stats, Diag. #    214  SIarea    vol(   0 ): 3.580E+14  Parms: SM      M1      
 Compute Stats, Diag. #    217  SIheff    vol(   0 ): 3.580E+14  Parms: SM      M1      
 Compute Stats, Diag. #    219  SIhsnow   vol(   0 ): 3.580E+14  Parms: SM      M1      
 Compute Stats, Diag. #     83  sIceLoad  vol(   0 ): 3.580E+14  Parms: SM      U1      
 Compute Stats, Diag. #    223  SIuice    vol(   0 ): 3.513E+14  Parms: UU      M1      
 Compute Stats, Diag. #    224  SIvice    vol(   0 ): 3.508E+14  Parms: VV      M1      
 Compute Stats, Diag. #    225  SItaux    vol(   0 ): 3.513E+14  Parms: UU      U1      
 Compute Stats, Diag. #    226  SItauy    vol(   0 ): 3.508E+14  Parms: VV      U1      
 cg2d: Sum(rhs),rhsMax =  -1.86171519185028E+01  2.89512749953466E-01
 Compute Stats, Diag. #    214  SIarea    vol(   0 ): 3.580E+14  Parms: SM      M1      
 Compute Stats, Diag. #    217  SIheff    vol(   0 ): 3.580E+14  Parms: SM      M1      
 Compute Stats, Diag. #    219  SIhsnow   vol(   0 ): 3.580E+14  Parms: SM      M1      
 Compute Stats, Diag. #     83  sIceLoad  vol(   0 ): 3.580E+14  Parms: SM      U1      
 Compute Stats, Diag. #    223  SIuice    vol(   0 ): 3.513E+14  Parms: UU      M1      
 Compute Stats, Diag. #    224  SIvice    vol(   0 ): 3.508E+14  Parms: VV      M1      
 Compute Stats, Diag. #    225  SItaux    vol(   0 ): 3.513E+14  Parms: UU      U1      
 Compute Stats, Diag. #    226  SItauy    vol(   0 ): 3.508E+14  Parms: VV      U1      
 cg2d: Sum(rhs),rhsMax =  -1.87816655744630E+01  2.89482669501888E-01
 Compute Stats, Diag. #    214  SIarea    vol(   0 ): 3.580E+14  Parms: SM      M1      
 Compute Stats, Diag. #    217  SIheff    vol(   0 ): 3.580E+14  Parms: SM      M1      
 Compute Stats, Diag. #    219  SIhsnow   vol(   0 ): 3.580E+14  Parms: SM      M1      
 Compute Stats, Diag. #     83  sIceLoad  vol(   0 ): 3.580E+14  Parms: SM      U1      
 Compute Stats, Diag. #    223  SIuice    vol(   0 ): 3.513E+14  Parms: UU      M1      
 Compute Stats, Diag. #    224  SIvice    vol(   0 ): 3.508E+14  Parms: VV      M1      
 Compute Stats, Diag. #    225  SItaux    vol(   0 ): 3.513E+14  Parms: UU      U1      
 Compute Stats, Diag. #    226  SItauy    vol(   0 ): 3.508E+14  Parms: VV      U1      
 cg2d: Sum(rhs),rhsMax =  -1.89507004111440E+01  2.89451805763382E-01
 Compute Stats, Diag. #    214  SIarea    vol(   0 ): 3.580E+14  Parms: SM      M1      
 Compute Stats, Diag. #    217  SIheff    vol(   0 ): 3.580E+14  Parms: SM      M1      
 Compute Stats, Diag. #    219  SIhsnow   vol(   0 ): 3.580E+14  Parms: SM      M1      
 Compute Stats, Diag. #     83  sIceLoad  vol(   0 ): 3.580E+14  Parms: SM      U1      
 Compute Stats, Diag. #    223  SIuice    vol(   0 ): 3.513E+14  Parms: UU      M1      
 Compute Stats, Diag. #    224  SIvice    vol(   0 ): 3.508E+14  Parms: VV      M1      
 Compute Stats, Diag. #    225  SItaux    vol(   0 ): 3.513E+14  Parms: UU      U1      
 Compute Stats, Diag. #    226  SItauy    vol(   0 ): 3.508E+14  Parms: VV      U1      
 cg2d: Sum(rhs),rhsMax =  -1.91341564156656E+01  2.89419972536342E-01
(PID.TID 0000.0001)      cg2d_init_res =   4.80864368689524E-02
(PID.TID 0000.0001)      cg2d_iters(min,last) =      -1      24
(PID.TID 0000.0001)      cg2d_last_res =   2.58872488048712E-05
(PID.TID 0000.0001) // =======================================================
(PID.TID 0000.0001) // Begin MONITOR dynamic field statistics
(PID.TID 0000.0001) // =======================================================
(PID.TID 0000.0001) %MON time_tsnumber                =                   832
(PID.TID 0000.0001) %MON time_secondsf                =   7.4880000000000E+05
(PID.TID 0000.0001) %MON dynstat_eta_max              =   1.0290928075471E+00
(PID.TID 0000.0001) %MON dynstat_eta_min              =  -1.8441486193565E+00
(PID.TID 0000.0001) %MON dynstat_eta_mean             =   6.0527447786837E-04
(PID.TID 0000.0001) %MON dynstat_eta_sd               =   6.3103163003007E-01
(PID.TID 0000.0001) %MON dynstat_eta_del2             =   5.2142575755989E-05
(PID.TID 0000.0001) %MON dynstat_uvel_max             =   7.1630447418253E-01
(PID.TID 0000.0001) %MON dynstat_uvel_min             =  -7.2165509014008E-01
(PID.TID 0000.0001) %MON dynstat_uvel_mean            =   1.3302299118551E-03
(PID.TID 0000.0001) %MON dynstat_uvel_sd              =   1.8313380531520E-02
(PID.TID 0000.0001) %MON dynstat_uvel_del2            =   7.1578976511390E-06
(PID.TID 0000.0001) %MON dynstat_vvel_max             =   5.4749411044071E-01
(PID.TID 0000.0001) %MON dynstat_vvel_min             =  -8.5876904547524E-01
(PID.TID 0000.0001) %MON dynstat_vvel_mean            =   1.0556877899074E-03
(PID.TID 0000.0001) %MON dynstat_vvel_sd              =   1.9403205960191E-02
(PID.TID 0000.0001) %MON dynstat_vvel_del2            =   7.1636884241659E-06
(PID.TID 0000.0001) %MON dynstat_wvel_max             =   3.0266264237479E-04
(PID.TID 0000.0001) %MON dynstat_wvel_min             =  -7.9516437744701E-04
(PID.TID 0000.0001) %MON dynstat_wvel_mean            =   4.1285267314897E-09
(PID.TID 0000.0001) %MON dynstat_wvel_sd              =   1.7665659605513E-05
(PID.TID 0000.0001) %MON dynstat_wvel_del2            =   1.3386486034817E-08
(PID.TID 0000.0001) %MON dynstat_theta_max            =   3.2028244216872E+01
(PID.TID 0000.0001) %MON dynstat_theta_min            =  -2.0397939452540E+00
(PID.TID 0000.0001) %MON dynstat_theta_mean           =   3.5902189367383E+00
(PID.TID 0000.0001) %MON dynstat_theta_sd             =   4.4366402027876E+00
(PID.TID 0000.0001) %MON dynstat_theta_del2           =   9.1273296279976E-05
(PID.TID 0000.0001) %MON dynstat_salt_max             =   4.0711546893288E+01
(PID.TID 0000.0001) %MON dynstat_salt_min             =   5.7390325461126E+00
(PID.TID 0000.0001) %MON dynstat_salt_mean            =   3.4725566478009E+01
(PID.TID 0000.0001) %MON dynstat_salt_sd              =   3.7707573641592E-01
(PID.TID 0000.0001) %MON dynstat_salt_del2            =   3.5867368718108E-05
(PID.TID 0000.0001) %MON dynstat_sst_max              =   3.2028244216872E+01
(PID.TID 0000.0001) %MON dynstat_sst_min              =  -1.8067875286030E+00
(PID.TID 0000.0001) %MON dynstat_sst_mean             =   1.8463689226422E+01
(PID.TID 0000.0001) %MON dynstat_sst_sd               =   1.0260080335072E+01
(PID.TID 0000.0001) %MON dynstat_sst_del2             =   7.9274665643282E-04
(PID.TID 0000.0001) %MON dynstat_sss_max              =   3.9100903161499E+01
(PID.TID 0000.0001) %MON dynstat_sss_min              =   5.7390325461126E+00
(PID.TID 0000.0001) %MON dynstat_sss_mean             =   3.4700089519724E+01
(PID.TID 0000.0001) %MON dynstat_sss_sd               =   1.1747989905311E+00
(PID.TID 0000.0001) %MON dynstat_sss_del2             =   1.1005862888176E-03
(PID.TID 0000.0001) %MON forcing_qnet_max             =   1.6414560546875E+03
(PID.TID 0000.0001) %MON forcing_qnet_min             =  -8.4249625913939E+02
(PID.TID 0000.0001) %MON forcing_qnet_mean            =   1.9399991782607E+01
(PID.TID 0000.0001) %MON forcing_qnet_sd              =   2.0133169672169E+02
(PID.TID 0000.0001) %MON forcing_qnet_del2            =   3.3700461501343E-01
(PID.TID 0000.0001) %MON forcing_qsw_max              =   0.0000000000000E+00
(PID.TID 0000.0001) %MON forcing_qsw_min              =  -1.0558476532275E+02
(PID.TID 0000.0001) %MON forcing_qsw_mean             =  -1.5510373910043E+01
(PID.TID 0000.0001) %MON forcing_qsw_sd               =   2.7395227029245E+01
(PID.TID 0000.0001) %MON forcing_qsw_del2             =   2.1355908815066E-02
(PID.TID 0000.0001) %MON forcing_empmr_max            =   1.6145834233612E-03
(PID.TID 0000.0001) %MON forcing_empmr_min            =  -5.4318115115166E-02
(PID.TID 0000.0001) %MON forcing_empmr_mean           =  -6.6351055816631E-06
(PID.TID 0000.0001) %MON forcing_empmr_sd             =   2.5222132963082E-04
(PID.TID 0000.0001) %MON forcing_empmr_del2           =   2.6982182679027E-06
(PID.TID 0000.0001) %MON forcing_fu_max               =   1.5166522264481E+00
(PID.TID 0000.0001) %MON forcing_fu_min               =  -8.2526123523712E-01
(PID.TID 0000.0001) %MON forcing_fu_mean              =   2.1607780205514E-03
(PID.TID 0000.0001) %MON forcing_fu_sd                =   1.1370142752958E-01
(PID.TID 0000.0001) %MON forcing_fu_del2              =   1.5693333904801E-04
(PID.TID 0000.0001) %MON forcing_fv_max               =   7.8578117489815E-01
(PID.TID 0000.0001) %MON forcing_fv_min               =  -9.1087383031845E-01
(PID.TID 0000.0001) %MON forcing_fv_mean              =  -1.0993604393981E-02
(PID.TID 0000.0001) %MON forcing_fv_sd                =   1.0254958806574E-01
(PID.TID 0000.0001) %MON forcing_fv_del2              =   1.1897392995215E-04
(PID.TID 0000.0001) %MON trAdv_CFL_u_max              =   1.0500161278969E-02
(PID.TID 0000.0001) %MON trAdv_CFL_v_max              =   1.1899851124015E-02
(PID.TID 0000.0001) %MON trAdv_CFL_w_max              =   1.9789444402955E-02
(PID.TID 0000.0001) %MON advcfl_uvel_max              =   7.4050913091897E-03
(PID.TID 0000.0001) %MON advcfl_vvel_max              =   1.1004779778179E-02
(PID.TID 0000.0001) %MON advcfl_wvel_max              =   2.7239637813731E-02
(PID.TID 0000.0001) %MON advcfl_W_hf_max              =   2.7331656615169E-02
(PID.TID 0000.0001) %MON pe_b_mean                    =   5.2379441678258E-04
(PID.TID 0000.0001) %MON ke_max                       =   3.7283469820982E-01
(PID.TID 0000.0001) %MON ke_mean                      =   3.4464773014556E-04
(PID.TID 0000.0001) %MON ke_vol                       =   1.3349980915583E+18
(PID.TID 0000.0001) %MON vort_r_min                   =  -1.0538299356006E-05
(PID.TID 0000.0001) %MON vort_r_max                   =   1.7823527306656E-05
(PID.TID 0000.0001) %MON vort_a_mean                  =  -1.9727864647440E-05
(PID.TID 0000.0001) %MON vort_a_sd                    =   7.4542972777442E-05
(PID.TID 0000.0001) %MON vort_p_mean                  =  -2.1760530523852E-05
(PID.TID 0000.0001) %MON vort_p_sd                    =   9.7246426890729E-05
(PID.TID 0000.0001) %MON surfExpan_theta_mean         =  -1.2567181351441E-07
(PID.TID 0000.0001) %MON surfExpan_salt_mean          =   2.0415176737899E-08
(PID.TID 0000.0001) // =======================================================
(PID.TID 0000.0001) // End MONITOR dynamic field statistics
(PID.TID 0000.0001) // =======================================================
(PID.TID 0000.0001) // =======================================================
(PID.TID 0000.0001) // Begin MONITOR SEAICE statistics
(PID.TID 0000.0001) // =======================================================
(PID.TID 0000.0001) %MON seaice_tsnumber              =                   832
(PID.TID 0000.0001) %MON seaice_time_sec              =   7.4880000000000E+05
(PID.TID 0000.0001) %MON seaice_uice_max              =   4.0000000000000E-01
(PID.TID 0000.0001) %MON seaice_uice_min              =  -4.0000000000000E-01
(PID.TID 0000.0001) %MON seaice_uice_mean             =  -8.3054598624025E-03
(PID.TID 0000.0001) %MON seaice_uice_sd               =   1.9802383574176E-01
(PID.TID 0000.0001) %MON seaice_uice_del2             =   2.2931571122150E-04
(PID.TID 0000.0001) %MON seaice_vice_max              =   4.0000000000000E-01
(PID.TID 0000.0001) %MON seaice_vice_min              =  -4.0000000000000E-01
(PID.TID 0000.0001) %MON seaice_vice_mean             =  -2.1960776359499E-02
(PID.TID 0000.0001) %MON seaice_vice_sd               =   2.1302038025672E-01
(PID.TID 0000.0001) %MON seaice_vice_del2             =   2.3932563818061E-04
(PID.TID 0000.0001) %MON seaice_area_max              =   1.0000000000000E+00
(PID.TID 0000.0001) %MON seaice_area_min              =   0.0000000000000E+00
(PID.TID 0000.0001) %MON seaice_area_mean             =   6.5532169943146E-02
(PID.TID 0000.0001) %MON seaice_area_sd               =   2.2924818530778E-01
(PID.TID 0000.0001) %MON seaice_area_del2             =   3.8804653927654E-04
(PID.TID 0000.0001) %MON seaice_heff_max              =   2.4982322244439E+01
(PID.TID 0000.0001) %MON seaice_heff_min              =   0.0000000000000E+00
(PID.TID 0000.0001) %MON seaice_heff_mean             =   2.1232331662668E-01
(PID.TID 0000.0001) %MON seaice_heff_sd               =   1.0663012219092E+00
(PID.TID 0000.0001) %MON seaice_heff_del2             =   3.8355152420945E-03
(PID.TID 0000.0001) %MON seaice_hsnow_max             =   8.2516333564708E+00
(PID.TID 0000.0001) %MON seaice_hsnow_min             =   0.0000000000000E+00
(PID.TID 0000.0001) %MON seaice_hsnow_mean            =   2.3992206058068E-02
(PID.TID 0000.0001) %MON seaice_hsnow_sd              =   1.5606257826189E-01
(PID.TID 0000.0001) %MON seaice_hsnow_del2            =   1.2384609558734E-03
(PID.TID 0000.0001) // =======================================================
(PID.TID 0000.0001) // End MONITOR SEAICE statistics
(PID.TID 0000.0001) // =======================================================
 Computing Diagnostic #     86  oceQnet      Counter:       4   Parms: SM      U1      
 Computing Diagnostic #     87  oceQsw       Counter:       4   Parms: SM      U1      
 Computing Diagnostic #     84  oceFWflx     Counter:       4   Parms: SM      U1      
 Computing Diagnostic #     85  oceSflux     Counter:       4   Parms: SM      U1      
 Computing Diagnostic #     80  oceTAUX      Counter:       4   Parms: UU      U1      
           Vector  Mate for  oceTAUX      Diagnostic #     81  oceTAUY  exists 
 Computing Diagnostic #     81  oceTAUY      Counter:       4   Parms: VV      U1      
           Vector  Mate for  oceTAUY      Diagnostic #     80  oceTAUX  exists 
 Computing Diagnostic #     26  THETA        Counter:       4   Parms: SMR     MR      
 Computing Diagnostic #     27  SALT         Counter:       4   Parms: SMR     MR      
 Computing Diagnostic #     30  UVEL         Counter:       4   Parms: UUR     MR      
           Vector  Mate for  UVEL         Diagnostic #     31  VVEL     exists 
 Computing Diagnostic #     31  VVEL         Counter:       4   Parms: VVR     MR      
           Vector  Mate for  VVEL         Diagnostic #     30  UVEL     exists 
 Computing Diagnostic #    214  SIarea       Counter:       4   Parms: SM      M1      
 Computing Diagnostic #    217  SIheff       Counter:       4   Parms: SM      M1      
 Computing Diagnostic #    219  SIhsnow      Counter:       4   Parms: SM      M1      
 Computing Diagnostic #     83  sIceLoad     Counter:       4   Parms: SM      U1      
 Computing Diagnostic #    223  SIuice       Counter:       4   Parms: UU      M1      
           Vector  Mate for  SIuice       Diagnostic #    224  SIvice   exists 
 Computing Diagnostic #    224  SIvice       Counter:       4   Parms: VV      M1      
           Vector  Mate for  SIvice       Diagnostic #    223  SIuice   exists 
 Computing Diagnostic #    225  SItaux       Counter:       4   Parms: UU      U1      
           Vector  Mate for  SItaux       Diagnostic #    226  SItauy   exists 
 Computing Diagnostic #    226  SItauy       Counter:       4   Parms: VV      U1      
           Vector  Mate for  SItauy       Diagnostic #    225  SItaux   exists 
 Computing Diagnostic #    285  SIareaN      Counter:       4   Parms: SM      MX      
 Computing Diagnostic #    284  SIheffN      Counter:       4   Parms: SM      MX      
 Computing Diagnostic #    286  SIhsnowN     Counter:       4   Parms: SM      MX      
 Compute Stats, Diag. #    214  SIarea    vol(   0 ): 3.580E+14  Parms: SM      M1      
 Compute Stats, Diag. #    217  SIheff    vol(   0 ): 3.580E+14  Parms: SM      M1      
 Compute Stats, Diag. #    219  SIhsnow   vol(   0 ): 3.580E+14  Parms: SM      M1      
 Compute Stats, Diag. #     83  sIceLoad  vol(   0 ): 3.580E+14  Parms: SM      U1      
 Compute Stats, Diag. #    223  SIuice    vol(   0 ): 3.513E+14  Parms: UU      M1      
 Compute Stats, Diag. #    224  SIvice    vol(   0 ): 3.508E+14  Parms: VV      M1      
 Compute Stats, Diag. #    225  SItaux    vol(   0 ): 3.513E+14  Parms: UU      U1      
 Compute Stats, Diag. #    226  SItauy    vol(   0 ): 3.508E+14  Parms: VV      U1      
 cg2d: Sum(rhs),rhsMax =  -1.93194881131501E+01  2.89387993232395E-01
 Compute Stats, Diag. #    214  SIarea    vol(   0 ): 3.580E+14  Parms: SM      M1      
 Compute Stats, Diag. #    217  SIheff    vol(   0 ): 3.580E+14  Parms: SM      M1      
 Compute Stats, Diag. #    219  SIhsnow   vol(   0 ): 3.580E+14  Parms: SM      M1      
 Compute Stats, Diag. #     83  sIceLoad  vol(   0 ): 3.580E+14  Parms: SM      U1      
 Compute Stats, Diag. #    223  SIuice    vol(   0 ): 3.513E+14  Parms: UU      M1      
 Compute Stats, Diag. #    224  SIvice    vol(   0 ): 3.508E+14  Parms: VV      M1      
 Compute Stats, Diag. #    225  SItaux    vol(   0 ): 3.513E+14  Parms: UU      U1      
 Compute Stats, Diag. #    226  SItauy    vol(   0 ): 3.508E+14  Parms: VV      U1      
 cg2d: Sum(rhs),rhsMax =  -1.95029627424434E+01  2.89356304338914E-01
 Compute Stats, Diag. #    214  SIarea    vol(   0 ): 3.580E+14  Parms: SM      M1      
 Compute Stats, Diag. #    217  SIheff    vol(   0 ): 3.580E+14  Parms: SM      M1      
 Compute Stats, Diag. #    219  SIhsnow   vol(   0 ): 3.580E+14  Parms: SM      M1      
 Compute Stats, Diag. #     83  sIceLoad  vol(   0 ): 3.580E+14  Parms: SM      U1      
 Compute Stats, Diag. #    223  SIuice    vol(   0 ): 3.513E+14  Parms: UU      M1      
 Compute Stats, Diag. #    224  SIvice    vol(   0 ): 3.508E+14  Parms: VV      M1      
 Compute Stats, Diag. #    225  SItaux    vol(   0 ): 3.513E+14  Parms: UU      U1      
 Compute Stats, Diag. #    226  SItauy    vol(   0 ): 3.508E+14  Parms: VV      U1      
 cg2d: Sum(rhs),rhsMax =  -1.96818705635206E+01  2.89325009583901E-01
 Compute Stats, Diag. #    214  SIarea    vol(   0 ): 3.580E+14  Parms: SM      M1      
 Compute Stats, Diag. #    217  SIheff    vol(   0 ): 3.580E+14  Parms: SM      M1      
 Compute Stats, Diag. #    219  SIhsnow   vol(   0 ): 3.580E+14  Parms: SM      M1      
 Compute Stats, Diag. #     83  sIceLoad  vol(   0 ): 3.580E+14  Parms: SM      U1      
 Compute Stats, Diag. #    223  SIuice    vol(   0 ): 3.513E+14  Parms: UU      M1      
 Compute Stats, Diag. #    224  SIvice    vol(   0 ): 3.508E+14  Parms: VV      M1      
 Compute Stats, Diag. #    225  SItaux    vol(   0 ): 3.513E+14  Parms: UU      U1      
 Compute Stats, Diag. #    226  SItauy    vol(   0 ): 3.508E+14  Parms: VV      U1      
 cg2d: Sum(rhs),rhsMax =  -1.98755151371139E+01  2.89294748014970E-01
 Computing Diagnostic #     86  oceQnet      Counter:       4   Parms: SM      U1      
 Computing Diagnostic #     87  oceQsw       Counter:       4   Parms: SM      U1      
 Computing Diagnostic #     84  oceFWflx     Counter:       4   Parms: SM      U1      
 Computing Diagnostic #     85  oceSflux     Counter:       4   Parms: SM      U1      
 Computing Diagnostic #     80  oceTAUX      Counter:       4   Parms: UU      U1      
           Vector  Mate for  oceTAUX      Diagnostic #     81  oceTAUY  exists 
 Computing Diagnostic #     81  oceTAUY      Counter:       4   Parms: VV      U1      
           Vector  Mate for  oceTAUY      Diagnostic #     80  oceTAUX  exists 
 Computing Diagnostic #     26  THETA        Counter:       4   Parms: SMR     MR      
 Computing Diagnostic #     27  SALT         Counter:       4   Parms: SMR     MR      
 Computing Diagnostic #     30  UVEL         Counter:       4   Parms: UUR     MR      
           Vector  Mate for  UVEL         Diagnostic #     31  VVEL     exists 
 Computing Diagnostic #     31  VVEL         Counter:       4   Parms: VVR     MR      
           Vector  Mate for  VVEL         Diagnostic #     30  UVEL     exists 
 Computing Diagnostic #    214  SIarea       Counter:       4   Parms: SM      M1      
 Computing Diagnostic #    217  SIheff       Counter:       4   Parms: SM      M1      
 Computing Diagnostic #    219  SIhsnow      Counter:       4   Parms: SM      M1      
 Computing Diagnostic #     83  sIceLoad     Counter:       4   Parms: SM      U1      
 Computing Diagnostic #    223  SIuice       Counter:       4   Parms: UU      M1      
           Vector  Mate for  SIuice       Diagnostic #    224  SIvice   exists 
 Computing Diagnostic #    224  SIvice       Counter:       4   Parms: VV      M1      
           Vector  Mate for  SIvice       Diagnostic #    223  SIuice   exists 
 Computing Diagnostic #    225  SItaux       Counter:       4   Parms: UU      U1      
           Vector  Mate for  SItaux       Diagnostic #    226  SItauy   exists 
 Computing Diagnostic #    226  SItauy       Counter:       4   Parms: VV      U1      
           Vector  Mate for  SItauy       Diagnostic #    225  SItaux   exists 
 Computing Diagnostic #    285  SIareaN      Counter:       4   Parms: SM      MX      
 Computing Diagnostic #    284  SIheffN      Counter:       4   Parms: SM      MX      
 Computing Diagnostic #    286  SIhsnowN     Counter:       4   Parms: SM      MX      
 Compute Stats, Diag. #    214  SIarea    vol(   0 ): 3.580E+14  Parms: SM      M1      
 Compute Stats, Diag. #    217  SIheff    vol(   0 ): 3.580E+14  Parms: SM      M1      
 Compute Stats, Diag. #    219  SIhsnow   vol(   0 ): 3.580E+14  Parms: SM      M1      
 Compute Stats, Diag. #     83  sIceLoad  vol(   0 ): 3.580E+14  Parms: SM      U1      
 Compute Stats, Diag. #    223  SIuice    vol(   0 ): 3.513E+14  Parms: UU      M1      
 Compute Stats, Diag. #    224  SIvice    vol(   0 ): 3.508E+14  Parms: VV      M1      
 Compute Stats, Diag. #    225  SItaux    vol(   0 ): 3.513E+14  Parms: UU      U1      
 Compute Stats, Diag. #    226  SItauy    vol(   0 ): 3.508E+14  Parms: VV      U1      
 cg2d: Sum(rhs),rhsMax =  -2.00741323063361E+01  2.89265567007821E-01
 Compute Stats, Diag. #    214  SIarea    vol(   0 ): 3.580E+14  Parms: SM      M1      
 Compute Stats, Diag. #    217  SIheff    vol(   0 ): 3.580E+14  Parms: SM      M1      
 Compute Stats, Diag. #    219  SIhsnow   vol(   0 ): 3.580E+14  Parms: SM      M1      
 Compute Stats, Diag. #     83  sIceLoad  vol(   0 ): 3.580E+14  Parms: SM      U1      
 Compute Stats, Diag. #    223  SIuice    vol(   0 ): 3.513E+14  Parms: UU      M1      
 Compute Stats, Diag. #    224  SIvice    vol(   0 ): 3.508E+14  Parms: VV      M1      
 Compute Stats, Diag. #    225  SItaux    vol(   0 ): 3.513E+14  Parms: UU      U1      
 Compute Stats, Diag. #    226  SItauy    vol(   0 ): 3.508E+14  Parms: VV      U1      
 cg2d: Sum(rhs),rhsMax =  -2.02903469815565E+01  2.89238037593147E-01
 Compute Stats, Diag. #    214  SIarea    vol(   0 ): 3.580E+14  Parms: SM      M1      
 Compute Stats, Diag. #    217  SIheff    vol(   0 ): 3.580E+14  Parms: SM      M1      
 Compute Stats, Diag. #    219  SIhsnow   vol(   0 ): 3.580E+14  Parms: SM      M1      
 Compute Stats, Diag. #     83  sIceLoad  vol(   0 ): 3.580E+14  Parms: SM      U1      
 Compute Stats, Diag. #    223  SIuice    vol(   0 ): 3.513E+14  Parms: UU      M1      
 Compute Stats, Diag. #    224  SIvice    vol(   0 ): 3.508E+14  Parms: VV      M1      
 Compute Stats, Diag. #    225  SItaux    vol(   0 ): 3.513E+14  Parms: UU      U1      
 Compute Stats, Diag. #    226  SItauy    vol(   0 ): 3.508E+14  Parms: VV      U1      
 cg2d: Sum(rhs),rhsMax =  -2.04880486644051E+01  2.89212233569677E-01
 Compute Stats, Diag. #    214  SIarea    vol(   0 ): 3.580E+14  Parms: SM      M1      
 Compute Stats, Diag. #    217  SIheff    vol(   0 ): 3.580E+14  Parms: SM      M1      
 Compute Stats, Diag. #    219  SIhsnow   vol(   0 ): 3.580E+14  Parms: SM      M1      
 Compute Stats, Diag. #     83  sIceLoad  vol(   0 ): 3.580E+14  Parms: SM      U1      
 Compute Stats, Diag. #    223  SIuice    vol(   0 ): 3.513E+14  Parms: UU      M1      
 Compute Stats, Diag. #    224  SIvice    vol(   0 ): 3.508E+14  Parms: VV      M1      
 Compute Stats, Diag. #    225  SItaux    vol(   0 ): 3.513E+14  Parms: UU      U1      
 Compute Stats, Diag. #    226  SItauy    vol(   0 ): 3.508E+14  Parms: VV      U1      
 cg2d: Sum(rhs),rhsMax =  -2.06775617053880E+01  2.89187833975362E-01
(PID.TID 0000.0001)      cg2d_init_res =   4.92914435897827E-02
(PID.TID 0000.0001)      cg2d_iters(min,last) =      -1      24
(PID.TID 0000.0001)      cg2d_last_res =   2.52064912606326E-05
(PID.TID 0000.0001) // =======================================================
(PID.TID 0000.0001) // Begin MONITOR dynamic field statistics
(PID.TID 0000.0001) // =======================================================
(PID.TID 0000.0001) %MON time_tsnumber                =                   840
(PID.TID 0000.0001) %MON time_secondsf                =   7.5600000000000E+05
(PID.TID 0000.0001) %MON dynstat_eta_max              =   1.0294678698522E+00
(PID.TID 0000.0001) %MON dynstat_eta_min              =  -1.8432198814773E+00
(PID.TID 0000.0001) %MON dynstat_eta_mean             =   6.5409731649170E-04
(PID.TID 0000.0001) %MON dynstat_eta_sd               =   6.3063063497027E-01
(PID.TID 0000.0001) %MON dynstat_eta_del2             =   5.2264743239612E-05
(PID.TID 0000.0001) %MON dynstat_uvel_max             =   7.1839774236541E-01
(PID.TID 0000.0001) %MON dynstat_uvel_min             =  -7.2474385039158E-01
(PID.TID 0000.0001) %MON dynstat_uvel_mean            =   1.3278508847999E-03
(PID.TID 0000.0001) %MON dynstat_uvel_sd              =   1.8293969393635E-02
(PID.TID 0000.0001) %MON dynstat_uvel_del2            =   7.1568568213735E-06
(PID.TID 0000.0001) %MON dynstat_vvel_max             =   5.5384988094612E-01
(PID.TID 0000.0001) %MON dynstat_vvel_min             =  -8.5741414179959E-01
(PID.TID 0000.0001) %MON dynstat_vvel_mean            =   1.0510817391598E-03
(PID.TID 0000.0001) %MON dynstat_vvel_sd              =   1.9398933675585E-02
(PID.TID 0000.0001) %MON dynstat_vvel_del2            =   7.1528459223385E-06
(PID.TID 0000.0001) %MON dynstat_wvel_max             =   3.0310313557188E-04
(PID.TID 0000.0001) %MON dynstat_wvel_min             =  -7.8946222436301E-04
(PID.TID 0000.0001) %MON dynstat_wvel_mean            =   3.8705851291436E-09
(PID.TID 0000.0001) %MON dynstat_wvel_sd              =   1.7850118901551E-05
(PID.TID 0000.0001) %MON dynstat_wvel_del2            =   1.3346650693533E-08
(PID.TID 0000.0001) %MON dynstat_theta_max            =   3.2016549053474E+01
(PID.TID 0000.0001) %MON dynstat_theta_min            =  -2.0397891597827E+00
(PID.TID 0000.0001) %MON dynstat_theta_mean           =   3.5902127739422E+00
(PID.TID 0000.0001) %MON dynstat_theta_sd             =   4.4366254828414E+00
(PID.TID 0000.0001) %MON dynstat_theta_del2           =   9.1225309919493E-05
(PID.TID 0000.0001) %MON dynstat_salt_max             =   4.0711546774492E+01
(PID.TID 0000.0001) %MON dynstat_salt_min             =   5.6314082172233E+00
(PID.TID 0000.0001) %MON dynstat_salt_mean            =   3.4725566045668E+01
(PID.TID 0000.0001) %MON dynstat_salt_sd              =   3.7707666209165E-01
(PID.TID 0000.0001) %MON dynstat_salt_del2            =   3.5807899290268E-05
(PID.TID 0000.0001) %MON dynstat_sst_max              =   3.2005357527669E+01
(PID.TID 0000.0001) %MON dynstat_sst_min              =  -1.8060804659937E+00
(PID.TID 0000.0001) %MON dynstat_sst_mean             =   1.8464253843959E+01
(PID.TID 0000.0001) %MON dynstat_sst_sd               =   1.0261489513687E+01
(PID.TID 0000.0001) %MON dynstat_sst_del2             =   7.9202795390704E-04
(PID.TID 0000.0001) %MON dynstat_sss_max              =   3.9100714282249E+01
(PID.TID 0000.0001) %MON dynstat_sss_min              =   5.6314082172233E+00
(PID.TID 0000.0001) %MON dynstat_sss_mean             =   3.4700119613802E+01
(PID.TID 0000.0001) %MON dynstat_sss_sd               =   1.1750884426355E+00
(PID.TID 0000.0001) %MON dynstat_sss_del2             =   1.0972904860922E-03
(PID.TID 0000.0001) %MON forcing_qnet_max             =   5.7286584472656E+02
(PID.TID 0000.0001) %MON forcing_qnet_min             =  -9.0842846128399E+02
(PID.TID 0000.0001) %MON forcing_qnet_mean            =   8.1148618567093E+00
(PID.TID 0000.0001) %MON forcing_qnet_sd              =   2.1126849495044E+02
(PID.TID 0000.0001) %MON forcing_qnet_del2            =   3.1783705139694E-01
(PID.TID 0000.0001) %MON forcing_qsw_max              =   0.0000000000000E+00
(PID.TID 0000.0001) %MON forcing_qsw_min              =  -1.0910215658813E+02
(PID.TID 0000.0001) %MON forcing_qsw_mean             =  -1.7085479033783E+01
(PID.TID 0000.0001) %MON forcing_qsw_sd               =   2.9100508851503E+01
(PID.TID 0000.0001) %MON forcing_qsw_del2             =   2.1976435236381E-02
(PID.TID 0000.0001) %MON forcing_empmr_max            =   9.1525609605014E-04
(PID.TID 0000.0001) %MON forcing_empmr_min            =  -6.9956913590431E-02
(PID.TID 0000.0001) %MON forcing_empmr_mean           =  -6.8541721451530E-06
(PID.TID 0000.0001) %MON forcing_empmr_sd             =   2.9227241318035E-04
(PID.TID 0000.0001) %MON forcing_empmr_del2           =   2.9833003063731E-06
(PID.TID 0000.0001) %MON forcing_fu_max               =   1.2603852152824E+00
(PID.TID 0000.0001) %MON forcing_fu_min               =  -7.5657853484154E-01
(PID.TID 0000.0001) %MON forcing_fu_mean              =   1.9314629635647E-03
(PID.TID 0000.0001) %MON forcing_fu_sd                =   1.1206678810676E-01
(PID.TID 0000.0001) %MON forcing_fu_del2              =   1.5102740839364E-04
(PID.TID 0000.0001) %MON forcing_fv_max               =   6.9707238674164E-01
(PID.TID 0000.0001) %MON forcing_fv_min               =  -8.5430571436882E-01
(PID.TID 0000.0001) %MON forcing_fv_mean              =  -1.0323197834228E-02
(PID.TID 0000.0001) %MON forcing_fv_sd                =   1.0212325614388E-01
(PID.TID 0000.0001) %MON forcing_fv_del2              =   1.1904053008845E-04
(PID.TID 0000.0001) %MON trAdv_CFL_u_max              =   9.7359815806923E-03
(PID.TID 0000.0001) %MON trAdv_CFL_v_max              =   1.2026068039044E-02
(PID.TID 0000.0001) %MON trAdv_CFL_w_max              =   1.9771515276690E-02
(PID.TID 0000.0001) %MON advcfl_uvel_max              =   7.4395854731864E-03
(PID.TID 0000.0001) %MON advcfl_vvel_max              =   1.1132532485283E-02
(PID.TID 0000.0001) %MON advcfl_wvel_max              =   2.7279282201469E-02
(PID.TID 0000.0001) %MON advcfl_W_hf_max              =   2.7369848968028E-02
(PID.TID 0000.0001) %MON pe_b_mean                    =   5.2312900266162E-04
(PID.TID 0000.0001) %MON ke_max                       =   3.7148371149842E-01
(PID.TID 0000.0001) %MON ke_mean                      =   3.4421745486970E-04
(PID.TID 0000.0001) %MON ke_vol                       =   1.3349981089689E+18
(PID.TID 0000.0001) %MON vort_r_min                   =  -1.0755205930673E-05
(PID.TID 0000.0001) %MON vort_r_max                   =   1.7675213223321E-05
(PID.TID 0000.0001) %MON vort_a_mean                  =  -1.9727864647440E-05
(PID.TID 0000.0001) %MON vort_a_sd                    =   7.4542969189767E-05
(PID.TID 0000.0001) %MON vort_p_mean                  =  -2.1760530265104E-05
(PID.TID 0000.0001) %MON vort_p_sd                    =   9.7246476009440E-05
(PID.TID 0000.0001) %MON surfExpan_theta_mean         =  -1.0129850317616E-07
(PID.TID 0000.0001) %MON surfExpan_salt_mean          =   2.6235909046352E-08
(PID.TID 0000.0001) // =======================================================
(PID.TID 0000.0001) // End MONITOR dynamic field statistics
(PID.TID 0000.0001) // =======================================================
(PID.TID 0000.0001) // =======================================================
(PID.TID 0000.0001) // Begin MONITOR SEAICE statistics
(PID.TID 0000.0001) // =======================================================
(PID.TID 0000.0001) %MON seaice_tsnumber              =                   840
(PID.TID 0000.0001) %MON seaice_time_sec              =   7.5600000000000E+05
(PID.TID 0000.0001) %MON seaice_uice_max              =   4.0000000000000E-01
(PID.TID 0000.0001) %MON seaice_uice_min              =  -4.0000000000000E-01
(PID.TID 0000.0001) %MON seaice_uice_mean             =  -8.3054598624025E-03
(PID.TID 0000.0001) %MON seaice_uice_sd               =   1.9802383574176E-01
(PID.TID 0000.0001) %MON seaice_uice_del2             =   2.2931571122150E-04
(PID.TID 0000.0001) %MON seaice_vice_max              =   4.0000000000000E-01
(PID.TID 0000.0001) %MON seaice_vice_min              =  -4.0000000000000E-01
(PID.TID 0000.0001) %MON seaice_vice_mean             =  -2.1960776359499E-02
(PID.TID 0000.0001) %MON seaice_vice_sd               =   2.1302038025672E-01
(PID.TID 0000.0001) %MON seaice_vice_del2             =   2.3932563818061E-04
(PID.TID 0000.0001) %MON seaice_area_max              =   1.0000000000000E+00
(PID.TID 0000.0001) %MON seaice_area_min              =   0.0000000000000E+00
(PID.TID 0000.0001) %MON seaice_area_mean             =   6.5500035032095E-02
(PID.TID 0000.0001) %MON seaice_area_sd               =   2.2919523200402E-01
(PID.TID 0000.0001) %MON seaice_area_del2             =   3.8760933829743E-04
(PID.TID 0000.0001) %MON seaice_heff_max              =   2.4980375399115E+01
(PID.TID 0000.0001) %MON seaice_heff_min              =   0.0000000000000E+00
(PID.TID 0000.0001) %MON seaice_heff_mean             =   2.1229264196448E-01
(PID.TID 0000.0001) %MON seaice_heff_sd               =   1.0662732388546E+00
(PID.TID 0000.0001) %MON seaice_heff_del2             =   3.8348331257375E-03
(PID.TID 0000.0001) %MON seaice_hsnow_max             =   8.2509907400527E+00
(PID.TID 0000.0001) %MON seaice_hsnow_min             =   0.0000000000000E+00
(PID.TID 0000.0001) %MON seaice_hsnow_mean            =   2.3978489816949E-02
(PID.TID 0000.0001) %MON seaice_hsnow_sd              =   1.5604127190165E-01
(PID.TID 0000.0001) %MON seaice_hsnow_del2            =   1.2383317429586E-03
(PID.TID 0000.0001) // =======================================================
(PID.TID 0000.0001) // End MONITOR SEAICE statistics
(PID.TID 0000.0001) // =======================================================
 Computing Diagnostic #     86  oceQnet      Counter:       4   Parms: SM      U1      
 Computing Diagnostic #     87  oceQsw       Counter:       4   Parms: SM      U1      
 Computing Diagnostic #     84  oceFWflx     Counter:       4   Parms: SM      U1      
 Computing Diagnostic #     85  oceSflux     Counter:       4   Parms: SM      U1      
 Computing Diagnostic #     80  oceTAUX      Counter:       4   Parms: UU      U1      
           Vector  Mate for  oceTAUX      Diagnostic #     81  oceTAUY  exists 
 Computing Diagnostic #     81  oceTAUY      Counter:       4   Parms: VV      U1      
           Vector  Mate for  oceTAUY      Diagnostic #     80  oceTAUX  exists 
 Computing Diagnostic #     26  THETA        Counter:       4   Parms: SMR     MR      
 Computing Diagnostic #     27  SALT         Counter:       4   Parms: SMR     MR      
 Computing Diagnostic #     30  UVEL         Counter:       4   Parms: UUR     MR      
           Vector  Mate for  UVEL         Diagnostic #     31  VVEL     exists 
 Computing Diagnostic #     31  VVEL         Counter:       4   Parms: VVR     MR      
           Vector  Mate for  VVEL         Diagnostic #     30  UVEL     exists 
 Computing Diagnostic #    214  SIarea       Counter:       4   Parms: SM      M1      
 Computing Diagnostic #    217  SIheff       Counter:       4   Parms: SM      M1      
 Computing Diagnostic #    219  SIhsnow      Counter:       4   Parms: SM      M1      
 Computing Diagnostic #     83  sIceLoad     Counter:       4   Parms: SM      U1      
 Computing Diagnostic #    223  SIuice       Counter:       4   Parms: UU      M1      
           Vector  Mate for  SIuice       Diagnostic #    224  SIvice   exists 
 Computing Diagnostic #    224  SIvice       Counter:       4   Parms: VV      M1      
           Vector  Mate for  SIvice       Diagnostic #    223  SIuice   exists 
 Computing Diagnostic #    225  SItaux       Counter:       4   Parms: UU      U1      
           Vector  Mate for  SItaux       Diagnostic #    226  SItauy   exists 
 Computing Diagnostic #    226  SItauy       Counter:       4   Parms: VV      U1      
           Vector  Mate for  SItauy       Diagnostic #    225  SItaux   exists 
 Computing Diagnostic #    285  SIareaN      Counter:       4   Parms: SM      MX      
 Computing Diagnostic #    284  SIheffN      Counter:       4   Parms: SM      MX      
 Computing Diagnostic #    286  SIhsnowN     Counter:       4   Parms: SM      MX      
 Compute Stats, Diag. #    214  SIarea    vol(   0 ): 3.580E+14  Parms: SM      M1      
 Compute Stats, Diag. #    217  SIheff    vol(   0 ): 3.580E+14  Parms: SM      M1      
 Compute Stats, Diag. #    219  SIhsnow   vol(   0 ): 3.580E+14  Parms: SM      M1      
 Compute Stats, Diag. #     83  sIceLoad  vol(   0 ): 3.580E+14  Parms: SM      U1      
 Compute Stats, Diag. #    223  SIuice    vol(   0 ): 3.513E+14  Parms: UU      M1      
 Compute Stats, Diag. #    224  SIvice    vol(   0 ): 3.508E+14  Parms: VV      M1      
 Compute Stats, Diag. #    225  SItaux    vol(   0 ): 3.513E+14  Parms: UU      U1      
 Compute Stats, Diag. #    226  SItauy    vol(   0 ): 3.508E+14  Parms: VV      U1      
 cg2d: Sum(rhs),rhsMax =  -2.08641478352204E+01  2.89165420391021E-01
 Compute Stats, Diag. #    214  SIarea    vol(   0 ): 3.580E+14  Parms: SM      M1      
 Compute Stats, Diag. #    217  SIheff    vol(   0 ): 3.580E+14  Parms: SM      M1      
 Compute Stats, Diag. #    219  SIhsnow   vol(   0 ): 3.580E+14  Parms: SM      M1      
 Compute Stats, Diag. #     83  sIceLoad  vol(   0 ): 3.580E+14  Parms: SM      U1      
 Compute Stats, Diag. #    223  SIuice    vol(   0 ): 3.513E+14  Parms: UU      M1      
 Compute Stats, Diag. #    224  SIvice    vol(   0 ): 3.508E+14  Parms: VV      M1      
 Compute Stats, Diag. #    225  SItaux    vol(   0 ): 3.513E+14  Parms: UU      U1      
 Compute Stats, Diag. #    226  SItauy    vol(   0 ): 3.508E+14  Parms: VV      U1      
 cg2d: Sum(rhs),rhsMax =  -2.10407618234557E+01  2.89144721795570E-01
 Compute Stats, Diag. #    214  SIarea    vol(   0 ): 3.580E+14  Parms: SM      M1      
 Compute Stats, Diag. #    217  SIheff    vol(   0 ): 3.580E+14  Parms: SM      M1      
 Compute Stats, Diag. #    219  SIhsnow   vol(   0 ): 3.580E+14  Parms: SM      M1      
 Compute Stats, Diag. #     83  sIceLoad  vol(   0 ): 3.580E+14  Parms: SM      U1      
 Compute Stats, Diag. #    223  SIuice    vol(   0 ): 3.513E+14  Parms: UU      M1      
 Compute Stats, Diag. #    224  SIvice    vol(   0 ): 3.508E+14  Parms: VV      M1      
 Compute Stats, Diag. #    225  SItaux    vol(   0 ): 3.513E+14  Parms: UU      U1      
 Compute Stats, Diag. #    226  SItauy    vol(   0 ): 3.508E+14  Parms: VV      U1      
 cg2d: Sum(rhs),rhsMax =  -2.12181336917400E+01  2.89126083716065E-01
 Compute Stats, Diag. #    214  SIarea    vol(   0 ): 3.580E+14  Parms: SM      M1      
 Compute Stats, Diag. #    217  SIheff    vol(   0 ): 3.580E+14  Parms: SM      M1      
 Compute Stats, Diag. #    219  SIhsnow   vol(   0 ): 3.580E+14  Parms: SM      M1      
 Compute Stats, Diag. #     83  sIceLoad  vol(   0 ): 3.580E+14  Parms: SM      U1      
 Compute Stats, Diag. #    223  SIuice    vol(   0 ): 3.513E+14  Parms: UU      M1      
 Compute Stats, Diag. #    224  SIvice    vol(   0 ): 3.508E+14  Parms: VV      M1      
 Compute Stats, Diag. #    225  SItaux    vol(   0 ): 3.513E+14  Parms: UU      U1      
 Compute Stats, Diag. #    226  SItauy    vol(   0 ): 3.508E+14  Parms: VV      U1      
 cg2d: Sum(rhs),rhsMax =  -2.13969729885450E+01  2.89109313948421E-01
 Computing Diagnostic #     86  oceQnet      Counter:       4   Parms: SM      U1      
 Computing Diagnostic #     87  oceQsw       Counter:       4   Parms: SM      U1      
 Computing Diagnostic #     84  oceFWflx     Counter:       4   Parms: SM      U1      
 Computing Diagnostic #     85  oceSflux     Counter:       4   Parms: SM      U1      
 Computing Diagnostic #     80  oceTAUX      Counter:       4   Parms: UU      U1      
           Vector  Mate for  oceTAUX      Diagnostic #     81  oceTAUY  exists 
 Computing Diagnostic #     81  oceTAUY      Counter:       4   Parms: VV      U1      
           Vector  Mate for  oceTAUY      Diagnostic #     80  oceTAUX  exists 
 Computing Diagnostic #     26  THETA        Counter:       4   Parms: SMR     MR      
 Computing Diagnostic #     27  SALT         Counter:       4   Parms: SMR     MR      
 Computing Diagnostic #     30  UVEL         Counter:       4   Parms: UUR     MR      
           Vector  Mate for  UVEL         Diagnostic #     31  VVEL     exists 
 Computing Diagnostic #     31  VVEL         Counter:       4   Parms: VVR     MR      
           Vector  Mate for  VVEL         Diagnostic #     30  UVEL     exists 
 Computing Diagnostic #    214  SIarea       Counter:       4   Parms: SM      M1      
 Computing Diagnostic #    217  SIheff       Counter:       4   Parms: SM      M1      
 Computing Diagnostic #    219  SIhsnow      Counter:       4   Parms: SM      M1      
 Computing Diagnostic #     83  sIceLoad     Counter:       4   Parms: SM      U1      
 Computing Diagnostic #    223  SIuice       Counter:       4   Parms: UU      M1      
           Vector  Mate for  SIuice       Diagnostic #    224  SIvice   exists 
 Computing Diagnostic #    224  SIvice       Counter:       4   Parms: VV      M1      
           Vector  Mate for  SIvice       Diagnostic #    223  SIuice   exists 
 Computing Diagnostic #    225  SItaux       Counter:       4   Parms: UU      U1      
           Vector  Mate for  SItaux       Diagnostic #    226  SItauy   exists 
 Computing Diagnostic #    226  SItauy       Counter:       4   Parms: VV      U1      
           Vector  Mate for  SItauy       Diagnostic #    225  SItaux   exists 
 Computing Diagnostic #    285  SIareaN      Counter:       4   Parms: SM      MX      
 Computing Diagnostic #    284  SIheffN      Counter:       4   Parms: SM      MX      
 Computing Diagnostic #    286  SIhsnowN     Counter:       4   Parms: SM      MX      
 Compute Stats, Diag. #    214  SIarea    vol(   0 ): 3.580E+14  Parms: SM      M1      
 Compute Stats, Diag. #    217  SIheff    vol(   0 ): 3.580E+14  Parms: SM      M1      
 Compute Stats, Diag. #    219  SIhsnow   vol(   0 ): 3.580E+14  Parms: SM      M1      
 Compute Stats, Diag. #     83  sIceLoad  vol(   0 ): 3.580E+14  Parms: SM      U1      
 Compute Stats, Diag. #    223  SIuice    vol(   0 ): 3.513E+14  Parms: UU      M1      
 Compute Stats, Diag. #    224  SIvice    vol(   0 ): 3.508E+14  Parms: VV      M1      
 Compute Stats, Diag. #    225  SItaux    vol(   0 ): 3.513E+14  Parms: UU      U1      
 Compute Stats, Diag. #    226  SItauy    vol(   0 ): 3.508E+14  Parms: VV      U1      
 cg2d: Sum(rhs),rhsMax =  -2.15731966545406E+01  2.89094482884426E-01
 Compute Stats, Diag. #    214  SIarea    vol(   0 ): 3.580E+14  Parms: SM      M1      
 Compute Stats, Diag. #    217  SIheff    vol(   0 ): 3.580E+14  Parms: SM      M1      
 Compute Stats, Diag. #    219  SIhsnow   vol(   0 ): 3.580E+14  Parms: SM      M1      
 Compute Stats, Diag. #     83  sIceLoad  vol(   0 ): 3.580E+14  Parms: SM      U1      
 Compute Stats, Diag. #    223  SIuice    vol(   0 ): 3.513E+14  Parms: UU      M1      
 Compute Stats, Diag. #    224  SIvice    vol(   0 ): 3.508E+14  Parms: VV      M1      
 Compute Stats, Diag. #    225  SItaux    vol(   0 ): 3.513E+14  Parms: UU      U1      
 Compute Stats, Diag. #    226  SItauy    vol(   0 ): 3.508E+14  Parms: VV      U1      
 cg2d: Sum(rhs),rhsMax =  -2.17518145438697E+01  2.89081609365808E-01
 Compute Stats, Diag. #    214  SIarea    vol(   0 ): 3.580E+14  Parms: SM      M1      
 Compute Stats, Diag. #    217  SIheff    vol(   0 ): 3.580E+14  Parms: SM      M1      
 Compute Stats, Diag. #    219  SIhsnow   vol(   0 ): 3.580E+14  Parms: SM      M1      
 Compute Stats, Diag. #     83  sIceLoad  vol(   0 ): 3.580E+14  Parms: SM      U1      
 Compute Stats, Diag. #    223  SIuice    vol(   0 ): 3.513E+14  Parms: UU      M1      
 Compute Stats, Diag. #    224  SIvice    vol(   0 ): 3.508E+14  Parms: VV      M1      
 Compute Stats, Diag. #    225  SItaux    vol(   0 ): 3.513E+14  Parms: UU      U1      
 Compute Stats, Diag. #    226  SItauy    vol(   0 ): 3.508E+14  Parms: VV      U1      
 cg2d: Sum(rhs),rhsMax =  -2.19298286140043E+01  2.89069825901086E-01
 Compute Stats, Diag. #    214  SIarea    vol(   0 ): 3.580E+14  Parms: SM      M1      
 Compute Stats, Diag. #    217  SIheff    vol(   0 ): 3.580E+14  Parms: SM      M1      
 Compute Stats, Diag. #    219  SIhsnow   vol(   0 ): 3.580E+14  Parms: SM      M1      
 Compute Stats, Diag. #     83  sIceLoad  vol(   0 ): 3.580E+14  Parms: SM      U1      
 Compute Stats, Diag. #    223  SIuice    vol(   0 ): 3.513E+14  Parms: UU      M1      
 Compute Stats, Diag. #    224  SIvice    vol(   0 ): 3.508E+14  Parms: VV      M1      
 Compute Stats, Diag. #    225  SItaux    vol(   0 ): 3.513E+14  Parms: UU      U1      
 Compute Stats, Diag. #    226  SItauy    vol(   0 ): 3.508E+14  Parms: VV      U1      
 cg2d: Sum(rhs),rhsMax =  -2.21032452890179E+01  2.89059058592778E-01
(PID.TID 0000.0001)      cg2d_init_res =   4.59195151638230E-02
(PID.TID 0000.0001)      cg2d_iters(min,last) =      -1      24
(PID.TID 0000.0001)      cg2d_last_res =   2.43675479055108E-05
(PID.TID 0000.0001) // =======================================================
(PID.TID 0000.0001) // Begin MONITOR dynamic field statistics
(PID.TID 0000.0001) // =======================================================
(PID.TID 0000.0001) %MON time_tsnumber                =                   848
(PID.TID 0000.0001) %MON time_secondsf                =   7.6320000000000E+05
(PID.TID 0000.0001) %MON dynstat_eta_max              =   1.0291842162688E+00
(PID.TID 0000.0001) %MON dynstat_eta_min              =  -1.8418226502429E+00
(PID.TID 0000.0001) %MON dynstat_eta_mean             =   6.9919624157301E-04
(PID.TID 0000.0001) %MON dynstat_eta_sd               =   6.3014521459737E-01
(PID.TID 0000.0001) %MON dynstat_eta_del2             =   5.2160230530423E-05
(PID.TID 0000.0001) %MON dynstat_uvel_max             =   7.1968718597045E-01
(PID.TID 0000.0001) %MON dynstat_uvel_min             =  -7.2750688871366E-01
(PID.TID 0000.0001) %MON dynstat_uvel_mean            =   1.3267015769933E-03
(PID.TID 0000.0001) %MON dynstat_uvel_sd              =   1.8269635408959E-02
(PID.TID 0000.0001) %MON dynstat_uvel_del2            =   7.1473763622627E-06
(PID.TID 0000.0001) %MON dynstat_vvel_max             =   5.5910893970177E-01
(PID.TID 0000.0001) %MON dynstat_vvel_min             =  -8.5565775022885E-01
(PID.TID 0000.0001) %MON dynstat_vvel_mean            =   1.0480833589679E-03
(PID.TID 0000.0001) %MON dynstat_vvel_sd              =   1.9394986816865E-02
(PID.TID 0000.0001) %MON dynstat_vvel_del2            =   7.1437850617566E-06
(PID.TID 0000.0001) %MON dynstat_wvel_max             =   3.0254739677123E-04
(PID.TID 0000.0001) %MON dynstat_wvel_min             =  -7.8325186233085E-04
(PID.TID 0000.0001) %MON dynstat_wvel_mean            =   2.1008967551610E-09
(PID.TID 0000.0001) %MON dynstat_wvel_sd              =   1.8028762289695E-05
(PID.TID 0000.0001) %MON dynstat_wvel_del2            =   1.3319581767120E-08
(PID.TID 0000.0001) %MON dynstat_theta_max            =   3.2002124454732E+01
(PID.TID 0000.0001) %MON dynstat_theta_min            =  -2.0397848608055E+00
(PID.TID 0000.0001) %MON dynstat_theta_mean           =   3.5902122588947E+00
(PID.TID 0000.0001) %MON dynstat_theta_sd             =   4.4366364369044E+00
(PID.TID 0000.0001) %MON dynstat_theta_del2           =   9.1177314379703E-05
(PID.TID 0000.0001) %MON dynstat_salt_max             =   4.0711546579462E+01
(PID.TID 0000.0001) %MON dynstat_salt_min             =   5.4320451991406E+00
(PID.TID 0000.0001) %MON dynstat_salt_mean            =   3.4725565630889E+01
(PID.TID 0000.0001) %MON dynstat_salt_sd              =   3.7707821287743E-01
(PID.TID 0000.0001) %MON dynstat_salt_del2            =   3.5757404111902E-05
(PID.TID 0000.0001) %MON dynstat_sst_max              =   3.1984422626705E+01
(PID.TID 0000.0001) %MON dynstat_sst_min              =  -1.8101647618237E+00
(PID.TID 0000.0001) %MON dynstat_sst_mean             =   1.8465967136546E+01
(PID.TID 0000.0001) %MON dynstat_sst_sd               =   1.0263641372733E+01
(PID.TID 0000.0001) %MON dynstat_sst_del2             =   7.9117178193121E-04
(PID.TID 0000.0001) %MON dynstat_sss_max              =   3.9100538742973E+01
(PID.TID 0000.0001) %MON dynstat_sss_min              =   5.4320451991406E+00
(PID.TID 0000.0001) %MON dynstat_sss_mean             =   3.4700164527480E+01
(PID.TID 0000.0001) %MON dynstat_sss_sd               =   1.1754675275648E+00
(PID.TID 0000.0001) %MON dynstat_sss_del2             =   1.0947539076393E-03
(PID.TID 0000.0001) %MON forcing_qnet_max             =   6.1239245605469E+02
(PID.TID 0000.0001) %MON forcing_qnet_min             =  -7.4330305583248E+02
(PID.TID 0000.0001) %MON forcing_qnet_mean            =  -3.8885958764159E+00
(PID.TID 0000.0001) %MON forcing_qnet_sd              =   2.0406658787504E+02
(PID.TID 0000.0001) %MON forcing_qnet_del2            =   3.0903092829873E-01
(PID.TID 0000.0001) %MON forcing_qsw_max              =   0.0000000000000E+00
(PID.TID 0000.0001) %MON forcing_qsw_min              =  -1.0917411887350E+02
(PID.TID 0000.0001) %MON forcing_qsw_mean             =  -1.8592770468351E+01
(PID.TID 0000.0001) %MON forcing_qsw_sd               =   2.8218274660862E+01
(PID.TID 0000.0001) %MON forcing_qsw_del2             =   2.2114413305210E-02
(PID.TID 0000.0001) %MON forcing_empmr_max            =   7.9861114500090E-04
(PID.TID 0000.0001) %MON forcing_empmr_min            =  -8.6008705198765E-02
(PID.TID 0000.0001) %MON forcing_empmr_mean           =  -6.2720102912078E-06
(PID.TID 0000.0001) %MON forcing_empmr_sd             =   3.4630751851572E-04
(PID.TID 0000.0001) %MON forcing_empmr_del2           =   3.5913649111826E-06
(PID.TID 0000.0001) %MON forcing_fu_max               =   1.3206184506416E+00
(PID.TID 0000.0001) %MON forcing_fu_min               =  -7.5937619805336E-01
(PID.TID 0000.0001) %MON forcing_fu_mean              =   2.0689809555316E-03
(PID.TID 0000.0001) %MON forcing_fu_sd                =   1.1236248572370E-01
(PID.TID 0000.0001) %MON forcing_fu_del2              =   1.4920152587641E-04
(PID.TID 0000.0001) %MON forcing_fv_max               =   6.7744746804237E-01
(PID.TID 0000.0001) %MON forcing_fv_min               =  -7.9485085606575E-01
(PID.TID 0000.0001) %MON forcing_fv_mean              =  -1.0040705985641E-02
(PID.TID 0000.0001) %MON forcing_fv_sd                =   1.0228557094296E-01
(PID.TID 0000.0001) %MON forcing_fv_del2              =   1.1765119771877E-04
(PID.TID 0000.0001) %MON trAdv_CFL_u_max              =   9.8421301104436E-03
(PID.TID 0000.0001) %MON trAdv_CFL_v_max              =   1.2130506024531E-02
(PID.TID 0000.0001) %MON trAdv_CFL_w_max              =   1.9541502840382E-02
(PID.TID 0000.0001) %MON advcfl_uvel_max              =   7.4863963417100E-03
(PID.TID 0000.0001) %MON advcfl_vvel_max              =   1.1238240989435E-02
(PID.TID 0000.0001) %MON advcfl_wvel_max              =   2.7229265709411E-02
(PID.TID 0000.0001) %MON advcfl_W_hf_max              =   2.7318073988307E-02
(PID.TID 0000.0001) %MON pe_b_mean                    =   5.2232404281321E-04
(PID.TID 0000.0001) %MON ke_max                       =   3.6980391395972E-01
(PID.TID 0000.0001) %MON ke_mean                      =   3.4371013801704E-04
(PID.TID 0000.0001) %MON ke_vol                       =   1.3349981252973E+18
(PID.TID 0000.0001) %MON vort_r_min                   =  -1.1033247562761E-05
(PID.TID 0000.0001) %MON vort_r_max                   =   1.7016893181409E-05
(PID.TID 0000.0001) %MON vort_a_mean                  =  -1.9727864647440E-05
(PID.TID 0000.0001) %MON vort_a_sd                    =   7.4542966432623E-05
(PID.TID 0000.0001) %MON vort_p_mean                  =  -2.1760530023230E-05
(PID.TID 0000.0001) %MON vort_p_sd                    =   9.7246507399299E-05
(PID.TID 0000.0001) %MON surfExpan_theta_mean         =  -6.4246461995650E-08
(PID.TID 0000.0001) %MON surfExpan_salt_mean          =   4.2293857124863E-08
(PID.TID 0000.0001) // =======================================================
(PID.TID 0000.0001) // End MONITOR dynamic field statistics
(PID.TID 0000.0001) // =======================================================
(PID.TID 0000.0001) // =======================================================
(PID.TID 0000.0001) // Begin MONITOR SEAICE statistics
(PID.TID 0000.0001) // =======================================================
(PID.TID 0000.0001) %MON seaice_tsnumber              =                   848
(PID.TID 0000.0001) %MON seaice_time_sec              =   7.6320000000000E+05
(PID.TID 0000.0001) %MON seaice_uice_max              =   4.0000000000000E-01
(PID.TID 0000.0001) %MON seaice_uice_min              =  -4.0000000000000E-01
(PID.TID 0000.0001) %MON seaice_uice_mean             =  -8.3054598624025E-03
(PID.TID 0000.0001) %MON seaice_uice_sd               =   1.9802383574176E-01
(PID.TID 0000.0001) %MON seaice_uice_del2             =   2.2931571122150E-04
(PID.TID 0000.0001) %MON seaice_vice_max              =   4.0000000000000E-01
(PID.TID 0000.0001) %MON seaice_vice_min              =  -4.0000000000000E-01
(PID.TID 0000.0001) %MON seaice_vice_mean             =  -2.1960776359499E-02
(PID.TID 0000.0001) %MON seaice_vice_sd               =   2.1302038025672E-01
(PID.TID 0000.0001) %MON seaice_vice_del2             =   2.3932563818061E-04
(PID.TID 0000.0001) %MON seaice_area_max              =   1.0000000000000E+00
(PID.TID 0000.0001) %MON seaice_area_min              =   0.0000000000000E+00
(PID.TID 0000.0001) %MON seaice_area_mean             =   6.5468573735523E-02
(PID.TID 0000.0001) %MON seaice_area_sd               =   2.2914264363860E-01
(PID.TID 0000.0001) %MON seaice_area_del2             =   3.8713705721762E-04
(PID.TID 0000.0001) %MON seaice_heff_max              =   2.4978420501226E+01
(PID.TID 0000.0001) %MON seaice_heff_min              =   0.0000000000000E+00
(PID.TID 0000.0001) %MON seaice_heff_mean             =   2.1226198427004E-01
(PID.TID 0000.0001) %MON seaice_heff_sd               =   1.0662450122104E+00
(PID.TID 0000.0001) %MON seaice_heff_del2             =   3.8341483972145E-03
(PID.TID 0000.0001) %MON seaice_hsnow_max             =   8.2503437035484E+00
(PID.TID 0000.0001) %MON seaice_hsnow_min             =   0.0000000000000E+00
(PID.TID 0000.0001) %MON seaice_hsnow_mean            =   2.3961737374647E-02
(PID.TID 0000.0001) %MON seaice_hsnow_sd              =   1.5601783642674E-01
(PID.TID 0000.0001) %MON seaice_hsnow_del2            =   1.2381998395478E-03
(PID.TID 0000.0001) // =======================================================
(PID.TID 0000.0001) // End MONITOR SEAICE statistics
(PID.TID 0000.0001) // =======================================================
 Computing Diagnostic #     86  oceQnet      Counter:       4   Parms: SM      U1      
 Computing Diagnostic #     87  oceQsw       Counter:       4   Parms: SM      U1      
 Computing Diagnostic #     84  oceFWflx     Counter:       4   Parms: SM      U1      
 Computing Diagnostic #     85  oceSflux     Counter:       4   Parms: SM      U1      
 Computing Diagnostic #     80  oceTAUX      Counter:       4   Parms: UU      U1      
           Vector  Mate for  oceTAUX      Diagnostic #     81  oceTAUY  exists 
 Computing Diagnostic #     81  oceTAUY      Counter:       4   Parms: VV      U1      
           Vector  Mate for  oceTAUY      Diagnostic #     80  oceTAUX  exists 
 Computing Diagnostic #     26  THETA        Counter:       4   Parms: SMR     MR      
 Computing Diagnostic #     27  SALT         Counter:       4   Parms: SMR     MR      
 Computing Diagnostic #     30  UVEL         Counter:       4   Parms: UUR     MR      
           Vector  Mate for  UVEL         Diagnostic #     31  VVEL     exists 
 Computing Diagnostic #     31  VVEL         Counter:       4   Parms: VVR     MR      
           Vector  Mate for  VVEL         Diagnostic #     30  UVEL     exists 
 Computing Diagnostic #    214  SIarea       Counter:       4   Parms: SM      M1      
 Computing Diagnostic #    217  SIheff       Counter:       4   Parms: SM      M1      
 Computing Diagnostic #    219  SIhsnow      Counter:       4   Parms: SM      M1      
 Computing Diagnostic #     83  sIceLoad     Counter:       4   Parms: SM      U1      
 Computing Diagnostic #    223  SIuice       Counter:       4   Parms: UU      M1      
           Vector  Mate for  SIuice       Diagnostic #    224  SIvice   exists 
 Computing Diagnostic #    224  SIvice       Counter:       4   Parms: VV      M1      
           Vector  Mate for  SIvice       Diagnostic #    223  SIuice   exists 
 Computing Diagnostic #    225  SItaux       Counter:       4   Parms: UU      U1      
           Vector  Mate for  SItaux       Diagnostic #    226  SItauy   exists 
 Computing Diagnostic #    226  SItauy       Counter:       4   Parms: VV      U1      
           Vector  Mate for  SItauy       Diagnostic #    225  SItaux   exists 
 Computing Diagnostic #    285  SIareaN      Counter:       4   Parms: SM      MX      
 Computing Diagnostic #    284  SIheffN      Counter:       4   Parms: SM      MX      
 Computing Diagnostic #    286  SIhsnowN     Counter:       4   Parms: SM      MX      
 Compute Stats, Diag. #    214  SIarea    vol(   0 ): 3.580E+14  Parms: SM      M1      
 Compute Stats, Diag. #    217  SIheff    vol(   0 ): 3.580E+14  Parms: SM      M1      
 Compute Stats, Diag. #    219  SIhsnow   vol(   0 ): 3.580E+14  Parms: SM      M1      
 Compute Stats, Diag. #     83  sIceLoad  vol(   0 ): 3.580E+14  Parms: SM      U1      
 Compute Stats, Diag. #    223  SIuice    vol(   0 ): 3.513E+14  Parms: UU      M1      
 Compute Stats, Diag. #    224  SIvice    vol(   0 ): 3.508E+14  Parms: VV      M1      
 Compute Stats, Diag. #    225  SItaux    vol(   0 ): 3.513E+14  Parms: UU      U1      
 Compute Stats, Diag. #    226  SItauy    vol(   0 ): 3.508E+14  Parms: VV      U1      
 cg2d: Sum(rhs),rhsMax =  -2.22766778199022E+01  2.89049450118235E-01
 Compute Stats, Diag. #    214  SIarea    vol(   0 ): 3.580E+14  Parms: SM      M1      
 Compute Stats, Diag. #    217  SIheff    vol(   0 ): 3.580E+14  Parms: SM      M1      
 Compute Stats, Diag. #    219  SIhsnow   vol(   0 ): 3.580E+14  Parms: SM      M1      
 Compute Stats, Diag. #     83  sIceLoad  vol(   0 ): 3.580E+14  Parms: SM      U1      
 Compute Stats, Diag. #    223  SIuice    vol(   0 ): 3.513E+14  Parms: UU      M1      
 Compute Stats, Diag. #    224  SIvice    vol(   0 ): 3.508E+14  Parms: VV      M1      
 Compute Stats, Diag. #    225  SItaux    vol(   0 ): 3.513E+14  Parms: UU      U1      
 Compute Stats, Diag. #    226  SItauy    vol(   0 ): 3.508E+14  Parms: VV      U1      
 cg2d: Sum(rhs),rhsMax =  -2.24465449989498E+01  2.89040480492545E-01
 Compute Stats, Diag. #    214  SIarea    vol(   0 ): 3.580E+14  Parms: SM      M1      
 Compute Stats, Diag. #    217  SIheff    vol(   0 ): 3.580E+14  Parms: SM      M1      
 Compute Stats, Diag. #    219  SIhsnow   vol(   0 ): 3.580E+14  Parms: SM      M1      
 Compute Stats, Diag. #     83  sIceLoad  vol(   0 ): 3.580E+14  Parms: SM      U1      
 Compute Stats, Diag. #    223  SIuice    vol(   0 ): 3.513E+14  Parms: UU      M1      
 Compute Stats, Diag. #    224  SIvice    vol(   0 ): 3.508E+14  Parms: VV      M1      
 Compute Stats, Diag. #    225  SItaux    vol(   0 ): 3.513E+14  Parms: UU      U1      
 Compute Stats, Diag. #    226  SItauy    vol(   0 ): 3.508E+14  Parms: VV      U1      
 cg2d: Sum(rhs),rhsMax =  -2.26166768591392E+01  2.89031918253504E-01
 Compute Stats, Diag. #    214  SIarea    vol(   0 ): 3.580E+14  Parms: SM      M1      
 Compute Stats, Diag. #    217  SIheff    vol(   0 ): 3.580E+14  Parms: SM      M1      
 Compute Stats, Diag. #    219  SIhsnow   vol(   0 ): 3.580E+14  Parms: SM      M1      
 Compute Stats, Diag. #     83  sIceLoad  vol(   0 ): 3.580E+14  Parms: SM      U1      
 Compute Stats, Diag. #    223  SIuice    vol(   0 ): 3.513E+14  Parms: UU      M1      
 Compute Stats, Diag. #    224  SIvice    vol(   0 ): 3.508E+14  Parms: VV      M1      
 Compute Stats, Diag. #    225  SItaux    vol(   0 ): 3.513E+14  Parms: UU      U1      
 Compute Stats, Diag. #    226  SItauy    vol(   0 ): 3.508E+14  Parms: VV      U1      
 cg2d: Sum(rhs),rhsMax =  -2.27904565920043E+01  2.89023362626050E-01
 Computing Diagnostic #     86  oceQnet      Counter:       4   Parms: SM      U1      
 Computing Diagnostic #     87  oceQsw       Counter:       4   Parms: SM      U1      
 Computing Diagnostic #     84  oceFWflx     Counter:       4   Parms: SM      U1      
 Computing Diagnostic #     85  oceSflux     Counter:       4   Parms: SM      U1      
 Computing Diagnostic #     80  oceTAUX      Counter:       4   Parms: UU      U1      
           Vector  Mate for  oceTAUX      Diagnostic #     81  oceTAUY  exists 
 Computing Diagnostic #     81  oceTAUY      Counter:       4   Parms: VV      U1      
           Vector  Mate for  oceTAUY      Diagnostic #     80  oceTAUX  exists 
 Computing Diagnostic #     26  THETA        Counter:       4   Parms: SMR     MR      
 Computing Diagnostic #     27  SALT         Counter:       4   Parms: SMR     MR      
 Computing Diagnostic #     30  UVEL         Counter:       4   Parms: UUR     MR      
           Vector  Mate for  UVEL         Diagnostic #     31  VVEL     exists 
 Computing Diagnostic #     31  VVEL         Counter:       4   Parms: VVR     MR      
           Vector  Mate for  VVEL         Diagnostic #     30  UVEL     exists 
 Computing Diagnostic #    214  SIarea       Counter:       4   Parms: SM      M1      
 Computing Diagnostic #    217  SIheff       Counter:       4   Parms: SM      M1      
 Computing Diagnostic #    219  SIhsnow      Counter:       4   Parms: SM      M1      
 Computing Diagnostic #     83  sIceLoad     Counter:       4   Parms: SM      U1      
 Computing Diagnostic #    223  SIuice       Counter:       4   Parms: UU      M1      
           Vector  Mate for  SIuice       Diagnostic #    224  SIvice   exists 
 Computing Diagnostic #    224  SIvice       Counter:       4   Parms: VV      M1      
           Vector  Mate for  SIvice       Diagnostic #    223  SIuice   exists 
 Computing Diagnostic #    225  SItaux       Counter:       4   Parms: UU      U1      
           Vector  Mate for  SItaux       Diagnostic #    226  SItauy   exists 
 Computing Diagnostic #    226  SItauy       Counter:       4   Parms: VV      U1      
           Vector  Mate for  SItauy       Diagnostic #    225  SItaux   exists 
 Computing Diagnostic #    285  SIareaN      Counter:       4   Parms: SM      MX      
 Computing Diagnostic #    284  SIheffN      Counter:       4   Parms: SM      MX      
 Computing Diagnostic #    286  SIhsnowN     Counter:       4   Parms: SM      MX      
 Compute Stats, Diag. #    214  SIarea    vol(   0 ): 3.580E+14  Parms: SM      M1      
 Compute Stats, Diag. #    217  SIheff    vol(   0 ): 3.580E+14  Parms: SM      M1      
 Compute Stats, Diag. #    219  SIhsnow   vol(   0 ): 3.580E+14  Parms: SM      M1      
 Compute Stats, Diag. #     83  sIceLoad  vol(   0 ): 3.580E+14  Parms: SM      U1      
 Compute Stats, Diag. #    223  SIuice    vol(   0 ): 3.513E+14  Parms: UU      M1      
 Compute Stats, Diag. #    224  SIvice    vol(   0 ): 3.508E+14  Parms: VV      M1      
 Compute Stats, Diag. #    225  SItaux    vol(   0 ): 3.513E+14  Parms: UU      U1      
 Compute Stats, Diag. #    226  SItauy    vol(   0 ): 3.508E+14  Parms: VV      U1      
 cg2d: Sum(rhs),rhsMax =  -2.29824005783218E+01  2.89014536102200E-01
 Compute Stats, Diag. #    214  SIarea    vol(   0 ): 3.580E+14  Parms: SM      M1      
 Compute Stats, Diag. #    217  SIheff    vol(   0 ): 3.580E+14  Parms: SM      M1      
 Compute Stats, Diag. #    219  SIhsnow   vol(   0 ): 3.580E+14  Parms: SM      M1      
 Compute Stats, Diag. #     83  sIceLoad  vol(   0 ): 3.580E+14  Parms: SM      U1      
 Compute Stats, Diag. #    223  SIuice    vol(   0 ): 3.513E+14  Parms: UU      M1      
 Compute Stats, Diag. #    224  SIvice    vol(   0 ): 3.508E+14  Parms: VV      M1      
 Compute Stats, Diag. #    225  SItaux    vol(   0 ): 3.513E+14  Parms: UU      U1      
 Compute Stats, Diag. #    226  SItauy    vol(   0 ): 3.508E+14  Parms: VV      U1      
 cg2d: Sum(rhs),rhsMax =  -2.31561471738220E+01  2.89005096188679E-01
 Compute Stats, Diag. #    214  SIarea    vol(   0 ): 3.580E+14  Parms: SM      M1      
 Compute Stats, Diag. #    217  SIheff    vol(   0 ): 3.580E+14  Parms: SM      M1      
 Compute Stats, Diag. #    219  SIhsnow   vol(   0 ): 3.580E+14  Parms: SM      M1      
 Compute Stats, Diag. #     83  sIceLoad  vol(   0 ): 3.580E+14  Parms: SM      U1      
 Compute Stats, Diag. #    223  SIuice    vol(   0 ): 3.513E+14  Parms: UU      M1      
 Compute Stats, Diag. #    224  SIvice    vol(   0 ): 3.508E+14  Parms: VV      M1      
 Compute Stats, Diag. #    225  SItaux    vol(   0 ): 3.513E+14  Parms: UU      U1      
 Compute Stats, Diag. #    226  SItauy    vol(   0 ): 3.508E+14  Parms: VV      U1      
 cg2d: Sum(rhs),rhsMax =  -2.33211255497641E+01  2.88994603234303E-01
 Compute Stats, Diag. #    214  SIarea    vol(   0 ): 3.580E+14  Parms: SM      M1      
 Compute Stats, Diag. #    217  SIheff    vol(   0 ): 3.580E+14  Parms: SM      M1      
 Compute Stats, Diag. #    219  SIhsnow   vol(   0 ): 3.580E+14  Parms: SM      M1      
 Compute Stats, Diag. #     83  sIceLoad  vol(   0 ): 3.580E+14  Parms: SM      U1      
 Compute Stats, Diag. #    223  SIuice    vol(   0 ): 3.513E+14  Parms: UU      M1      
 Compute Stats, Diag. #    224  SIvice    vol(   0 ): 3.508E+14  Parms: VV      M1      
 Compute Stats, Diag. #    225  SItaux    vol(   0 ): 3.513E+14  Parms: UU      U1      
 Compute Stats, Diag. #    226  SItauy    vol(   0 ): 3.508E+14  Parms: VV      U1      
 cg2d: Sum(rhs),rhsMax =  -2.34739975676077E+01  2.88982860975129E-01
(PID.TID 0000.0001)      cg2d_init_res =   4.70035781980080E-02
(PID.TID 0000.0001)      cg2d_iters(min,last) =      -1      24
(PID.TID 0000.0001)      cg2d_last_res =   2.48982630711625E-05
(PID.TID 0000.0001) // =======================================================
(PID.TID 0000.0001) // Begin MONITOR dynamic field statistics
(PID.TID 0000.0001) // =======================================================
(PID.TID 0000.0001) %MON time_tsnumber                =                   856
(PID.TID 0000.0001) %MON time_secondsf                =   7.7040000000000E+05
(PID.TID 0000.0001) %MON dynstat_eta_max              =   1.0280720323809E+00
(PID.TID 0000.0001) %MON dynstat_eta_min              =  -1.8398715236212E+00
(PID.TID 0000.0001) %MON dynstat_eta_mean             =   7.4255751403712E-04
(PID.TID 0000.0001) %MON dynstat_eta_sd               =   6.2962041565943E-01
(PID.TID 0000.0001) %MON dynstat_eta_del2             =   5.1809212440147E-05
(PID.TID 0000.0001) %MON dynstat_uvel_max             =   7.2067725029090E-01
(PID.TID 0000.0001) %MON dynstat_uvel_min             =  -7.3188171702179E-01
(PID.TID 0000.0001) %MON dynstat_uvel_mean            =   1.3247171687192E-03
(PID.TID 0000.0001) %MON dynstat_uvel_sd              =   1.8245080259388E-02
(PID.TID 0000.0001) %MON dynstat_uvel_del2            =   7.1342927916783E-06
(PID.TID 0000.0001) %MON dynstat_vvel_max             =   5.6182271684326E-01
(PID.TID 0000.0001) %MON dynstat_vvel_min             =  -8.5322087864330E-01
(PID.TID 0000.0001) %MON dynstat_vvel_mean            =   1.0452044385772E-03
(PID.TID 0000.0001) %MON dynstat_vvel_sd              =   1.9393711374884E-02
(PID.TID 0000.0001) %MON dynstat_vvel_del2            =   7.1355516302417E-06
(PID.TID 0000.0001) %MON dynstat_wvel_max             =   2.9524466135385E-04
(PID.TID 0000.0001) %MON dynstat_wvel_min             =  -7.7747259129935E-04
(PID.TID 0000.0001) %MON dynstat_wvel_mean            =  -3.6595871867640E-10
(PID.TID 0000.0001) %MON dynstat_wvel_sd              =   1.8185803538948E-05
(PID.TID 0000.0001) %MON dynstat_wvel_del2            =   1.3300737287525E-08
(PID.TID 0000.0001) %MON dynstat_theta_max            =   3.1973699461763E+01
(PID.TID 0000.0001) %MON dynstat_theta_min            =  -2.0397808604263E+00
(PID.TID 0000.0001) %MON dynstat_theta_mean           =   3.5902170022078E+00
(PID.TID 0000.0001) %MON dynstat_theta_sd             =   4.4366705439255E+00
(PID.TID 0000.0001) %MON dynstat_theta_del2           =   9.1127959696959E-05
(PID.TID 0000.0001) %MON dynstat_salt_max             =   4.0711546237235E+01
(PID.TID 0000.0001) %MON dynstat_salt_min             =   5.0830794410727E+00
(PID.TID 0000.0001) %MON dynstat_salt_mean            =   3.4725565238880E+01
(PID.TID 0000.0001) %MON dynstat_salt_sd              =   3.7708091098797E-01
(PID.TID 0000.0001) %MON dynstat_salt_del2            =   3.5778742456203E-05
(PID.TID 0000.0001) %MON dynstat_sst_max              =   3.1973683169352E+01
(PID.TID 0000.0001) %MON dynstat_sst_min              =  -1.8142507433267E+00
(PID.TID 0000.0001) %MON dynstat_sst_mean             =   1.8467979072433E+01
(PID.TID 0000.0001) %MON dynstat_sst_sd               =   1.0265903064960E+01
(PID.TID 0000.0001) %MON dynstat_sst_del2             =   7.9020353234535E-04
(PID.TID 0000.0001) %MON dynstat_sss_max              =   3.9100384362769E+01
(PID.TID 0000.0001) %MON dynstat_sss_min              =   5.0830794410727E+00
(PID.TID 0000.0001) %MON dynstat_sss_mean             =   3.4700204348920E+01
(PID.TID 0000.0001) %MON dynstat_sss_sd               =   1.1759644120782E+00
(PID.TID 0000.0001) %MON dynstat_sss_del2             =   1.0962818320166E-03
(PID.TID 0000.0001) %MON forcing_qnet_max             =   1.8162861328125E+03
(PID.TID 0000.0001) %MON forcing_qnet_min             =  -7.4491450337927E+02
(PID.TID 0000.0001) %MON forcing_qnet_mean            =  -1.4908126150716E+01
(PID.TID 0000.0001) %MON forcing_qnet_sd              =   1.9882226606539E+02
(PID.TID 0000.0001) %MON forcing_qnet_del2            =   3.2092896765395E-01
(PID.TID 0000.0001) %MON forcing_qsw_max              =   0.0000000000000E+00
(PID.TID 0000.0001) %MON forcing_qsw_min              =  -1.0664648996877E+02
(PID.TID 0000.0001) %MON forcing_qsw_mean             =  -2.0014237565727E+01
(PID.TID 0000.0001) %MON forcing_qsw_sd               =   2.8884677586786E+01
(PID.TID 0000.0001) %MON forcing_qsw_del2             =   2.0830621246571E-02
(PID.TID 0000.0001) %MON forcing_empmr_max            =   1.0238032555208E-03
(PID.TID 0000.0001) %MON forcing_empmr_min            =  -9.9559634923935E-02
(PID.TID 0000.0001) %MON forcing_empmr_mean           =  -5.5289658221554E-06
(PID.TID 0000.0001) %MON forcing_empmr_sd             =   4.0435096375700E-04
(PID.TID 0000.0001) %MON forcing_empmr_del2           =   4.2402632103313E-06
(PID.TID 0000.0001) %MON forcing_fu_max               =   1.3397716283798E+00
(PID.TID 0000.0001) %MON forcing_fu_min               =  -7.3039120435715E-01
(PID.TID 0000.0001) %MON forcing_fu_mean              =   2.0008945851474E-03
(PID.TID 0000.0001) %MON forcing_fu_sd                =   1.1210036035746E-01
(PID.TID 0000.0001) %MON forcing_fu_del2              =   1.4699418529917E-04
(PID.TID 0000.0001) %MON forcing_fv_max               =   6.6394147276878E-01
(PID.TID 0000.0001) %MON forcing_fv_min               =  -6.9984063506126E-01
(PID.TID 0000.0001) %MON forcing_fv_mean              =  -9.7709792840321E-03
(PID.TID 0000.0001) %MON forcing_fv_sd                =   1.0257867303076E-01
(PID.TID 0000.0001) %MON forcing_fv_del2              =   1.1655907174486E-04
(PID.TID 0000.0001) %MON trAdv_CFL_u_max              =   9.8926575986246E-03
(PID.TID 0000.0001) %MON trAdv_CFL_v_max              =   1.2184398464717E-02
(PID.TID 0000.0001) %MON trAdv_CFL_w_max              =   1.9196042522001E-02
(PID.TID 0000.0001) %MON advcfl_uvel_max              =   7.5817858258650E-03
(PID.TID 0000.0001) %MON advcfl_vvel_max              =   1.1292788644359E-02
(PID.TID 0000.0001) %MON advcfl_wvel_max              =   2.6572019521846E-02
(PID.TID 0000.0001) %MON advcfl_W_hf_max              =   2.6657840727823E-02
(PID.TID 0000.0001) %MON pe_b_mean                    =   5.2145447610340E-04
(PID.TID 0000.0001) %MON ke_max                       =   3.6751427711122E-01
(PID.TID 0000.0001) %MON ke_mean                      =   3.4324854963742E-04
(PID.TID 0000.0001) %MON ke_vol                       =   1.3349981410539E+18
(PID.TID 0000.0001) %MON vort_r_min                   =  -1.0212316073442E-05
(PID.TID 0000.0001) %MON vort_r_max                   =   1.6037804975939E-05
(PID.TID 0000.0001) %MON vort_a_mean                  =  -1.9727864647440E-05
(PID.TID 0000.0001) %MON vort_a_sd                    =   7.4542964109163E-05
(PID.TID 0000.0001) %MON vort_p_mean                  =  -2.1760529779497E-05
(PID.TID 0000.0001) %MON vort_p_sd                    =   9.7246518894570E-05
(PID.TID 0000.0001) %MON surfExpan_theta_mean         =  -3.7543624149427E-08
(PID.TID 0000.0001) %MON surfExpan_salt_mean          =   6.2790225410553E-08
(PID.TID 0000.0001) // =======================================================
(PID.TID 0000.0001) // End MONITOR dynamic field statistics
(PID.TID 0000.0001) // =======================================================
(PID.TID 0000.0001) // =======================================================
(PID.TID 0000.0001) // Begin MONITOR SEAICE statistics
(PID.TID 0000.0001) // =======================================================
(PID.TID 0000.0001) %MON seaice_tsnumber              =                   856
(PID.TID 0000.0001) %MON seaice_time_sec              =   7.7040000000000E+05
(PID.TID 0000.0001) %MON seaice_uice_max              =   4.0000000000000E-01
(PID.TID 0000.0001) %MON seaice_uice_min              =  -4.0000000000000E-01
(PID.TID 0000.0001) %MON seaice_uice_mean             =  -8.3054598624025E-03
(PID.TID 0000.0001) %MON seaice_uice_sd               =   1.9802383574176E-01
(PID.TID 0000.0001) %MON seaice_uice_del2             =   2.2931571122150E-04
(PID.TID 0000.0001) %MON seaice_vice_max              =   4.0000000000000E-01
(PID.TID 0000.0001) %MON seaice_vice_min              =  -4.0000000000000E-01
(PID.TID 0000.0001) %MON seaice_vice_mean             =  -2.1960776359499E-02
(PID.TID 0000.0001) %MON seaice_vice_sd               =   2.1302038025672E-01
(PID.TID 0000.0001) %MON seaice_vice_del2             =   2.3932563818061E-04
(PID.TID 0000.0001) %MON seaice_area_max              =   1.0000000000000E+00
(PID.TID 0000.0001) %MON seaice_area_min              =   0.0000000000000E+00
(PID.TID 0000.0001) %MON seaice_area_mean             =   6.5439391501013E-02
(PID.TID 0000.0001) %MON seaice_area_sd               =   2.2909353853375E-01
(PID.TID 0000.0001) %MON seaice_area_del2             =   3.8667351599834E-04
(PID.TID 0000.0001) %MON seaice_heff_max              =   2.4976473132265E+01
(PID.TID 0000.0001) %MON seaice_heff_min              =   0.0000000000000E+00
(PID.TID 0000.0001) %MON seaice_heff_mean             =   2.1223211205949E-01
(PID.TID 0000.0001) %MON seaice_heff_sd               =   1.0662170619573E+00
(PID.TID 0000.0001) %MON seaice_heff_del2             =   3.8334603069123E-03
(PID.TID 0000.0001) %MON seaice_hsnow_max             =   8.2496968605556E+00
(PID.TID 0000.0001) %MON seaice_hsnow_min             =   0.0000000000000E+00
(PID.TID 0000.0001) %MON seaice_hsnow_mean            =   2.3948033302435E-02
(PID.TID 0000.0001) %MON seaice_hsnow_sd              =   1.5599875574071E-01
(PID.TID 0000.0001) %MON seaice_hsnow_del2            =   1.2380703332191E-03
(PID.TID 0000.0001) // =======================================================
(PID.TID 0000.0001) // End MONITOR SEAICE statistics
(PID.TID 0000.0001) // =======================================================
 Computing Diagnostic #     86  oceQnet      Counter:       4   Parms: SM      U1      
 Computing Diagnostic #     87  oceQsw       Counter:       4   Parms: SM      U1      
 Computing Diagnostic #     84  oceFWflx     Counter:       4   Parms: SM      U1      
 Computing Diagnostic #     85  oceSflux     Counter:       4   Parms: SM      U1      
 Computing Diagnostic #     80  oceTAUX      Counter:       4   Parms: UU      U1      
           Vector  Mate for  oceTAUX      Diagnostic #     81  oceTAUY  exists 
 Computing Diagnostic #     81  oceTAUY      Counter:       4   Parms: VV      U1      
           Vector  Mate for  oceTAUY      Diagnostic #     80  oceTAUX  exists 
 Computing Diagnostic #     26  THETA        Counter:       4   Parms: SMR     MR      
 Computing Diagnostic #     27  SALT         Counter:       4   Parms: SMR     MR      
 Computing Diagnostic #     30  UVEL         Counter:       4   Parms: UUR     MR      
           Vector  Mate for  UVEL         Diagnostic #     31  VVEL     exists 
 Computing Diagnostic #     31  VVEL         Counter:       4   Parms: VVR     MR      
           Vector  Mate for  VVEL         Diagnostic #     30  UVEL     exists 
 Computing Diagnostic #    214  SIarea       Counter:       4   Parms: SM      M1      
 Computing Diagnostic #    217  SIheff       Counter:       4   Parms: SM      M1      
 Computing Diagnostic #    219  SIhsnow      Counter:       4   Parms: SM      M1      
 Computing Diagnostic #     83  sIceLoad     Counter:       4   Parms: SM      U1      
 Computing Diagnostic #    223  SIuice       Counter:       4   Parms: UU      M1      
           Vector  Mate for  SIuice       Diagnostic #    224  SIvice   exists 
 Computing Diagnostic #    224  SIvice       Counter:       4   Parms: VV      M1      
           Vector  Mate for  SIvice       Diagnostic #    223  SIuice   exists 
 Computing Diagnostic #    225  SItaux       Counter:       4   Parms: UU      U1      
           Vector  Mate for  SItaux       Diagnostic #    226  SItauy   exists 
 Computing Diagnostic #    226  SItauy       Counter:       4   Parms: VV      U1      
           Vector  Mate for  SItauy       Diagnostic #    225  SItaux   exists 
 Computing Diagnostic #    285  SIareaN      Counter:       4   Parms: SM      MX      
 Computing Diagnostic #    284  SIheffN      Counter:       4   Parms: SM      MX      
 Computing Diagnostic #    286  SIhsnowN     Counter:       4   Parms: SM      MX      
 Compute Stats, Diag. #    214  SIarea    vol(   0 ): 3.580E+14  Parms: SM      M1      
 Compute Stats, Diag. #    217  SIheff    vol(   0 ): 3.580E+14  Parms: SM      M1      
 Compute Stats, Diag. #    219  SIhsnow   vol(   0 ): 3.580E+14  Parms: SM      M1      
 Compute Stats, Diag. #     83  sIceLoad  vol(   0 ): 3.580E+14  Parms: SM      U1      
 Compute Stats, Diag. #    223  SIuice    vol(   0 ): 3.513E+14  Parms: UU      M1      
 Compute Stats, Diag. #    224  SIvice    vol(   0 ): 3.508E+14  Parms: VV      M1      
 Compute Stats, Diag. #    225  SItaux    vol(   0 ): 3.513E+14  Parms: UU      U1      
 Compute Stats, Diag. #    226  SItauy    vol(   0 ): 3.508E+14  Parms: VV      U1      
 cg2d: Sum(rhs),rhsMax =  -2.36229733546734E+01  2.88968803020936E-01
 Compute Stats, Diag. #    214  SIarea    vol(   0 ): 3.580E+14  Parms: SM      M1      
 Compute Stats, Diag. #    217  SIheff    vol(   0 ): 3.580E+14  Parms: SM      M1      
 Compute Stats, Diag. #    219  SIhsnow   vol(   0 ): 3.580E+14  Parms: SM      M1      
 Compute Stats, Diag. #     83  sIceLoad  vol(   0 ): 3.580E+14  Parms: SM      U1      
 Compute Stats, Diag. #    223  SIuice    vol(   0 ): 3.513E+14  Parms: UU      M1      
 Compute Stats, Diag. #    224  SIvice    vol(   0 ): 3.508E+14  Parms: VV      M1      
 Compute Stats, Diag. #    225  SItaux    vol(   0 ): 3.513E+14  Parms: UU      U1      
 Compute Stats, Diag. #    226  SItauy    vol(   0 ): 3.508E+14  Parms: VV      U1      
 cg2d: Sum(rhs),rhsMax =  -2.37689144126303E+01  2.88952479745891E-01
 Compute Stats, Diag. #    214  SIarea    vol(   0 ): 3.580E+14  Parms: SM      M1      
 Compute Stats, Diag. #    217  SIheff    vol(   0 ): 3.580E+14  Parms: SM      M1      
 Compute Stats, Diag. #    219  SIhsnow   vol(   0 ): 3.580E+14  Parms: SM      M1      
 Compute Stats, Diag. #     83  sIceLoad  vol(   0 ): 3.580E+14  Parms: SM      U1      
 Compute Stats, Diag. #    223  SIuice    vol(   0 ): 3.513E+14  Parms: UU      M1      
 Compute Stats, Diag. #    224  SIvice    vol(   0 ): 3.508E+14  Parms: VV      M1      
 Compute Stats, Diag. #    225  SItaux    vol(   0 ): 3.513E+14  Parms: UU      U1      
 Compute Stats, Diag. #    226  SItauy    vol(   0 ): 3.508E+14  Parms: VV      U1      
 cg2d: Sum(rhs),rhsMax =  -2.39073358250468E+01  2.88932607997736E-01
 Compute Stats, Diag. #    214  SIarea    vol(   0 ): 3.580E+14  Parms: SM      M1      
 Compute Stats, Diag. #    217  SIheff    vol(   0 ): 3.580E+14  Parms: SM      M1      
 Compute Stats, Diag. #    219  SIhsnow   vol(   0 ): 3.580E+14  Parms: SM      M1      
 Compute Stats, Diag. #     83  sIceLoad  vol(   0 ): 3.580E+14  Parms: SM      U1      
 Compute Stats, Diag. #    223  SIuice    vol(   0 ): 3.513E+14  Parms: UU      M1      
 Compute Stats, Diag. #    224  SIvice    vol(   0 ): 3.508E+14  Parms: VV      M1      
 Compute Stats, Diag. #    225  SItaux    vol(   0 ): 3.513E+14  Parms: UU      U1      
 Compute Stats, Diag. #    226  SItauy    vol(   0 ): 3.508E+14  Parms: VV      U1      
 cg2d: Sum(rhs),rhsMax =  -2.40307698162870E+01  2.88909704781800E-01
 Computing Diagnostic #     86  oceQnet      Counter:       4   Parms: SM      U1      
 Computing Diagnostic #     87  oceQsw       Counter:       4   Parms: SM      U1      
 Computing Diagnostic #     84  oceFWflx     Counter:       4   Parms: SM      U1      
 Computing Diagnostic #     85  oceSflux     Counter:       4   Parms: SM      U1      
 Computing Diagnostic #     80  oceTAUX      Counter:       4   Parms: UU      U1      
           Vector  Mate for  oceTAUX      Diagnostic #     81  oceTAUY  exists 
 Computing Diagnostic #     81  oceTAUY      Counter:       4   Parms: VV      U1      
           Vector  Mate for  oceTAUY      Diagnostic #     80  oceTAUX  exists 
 Computing Diagnostic #     26  THETA        Counter:       4   Parms: SMR     MR      
 Computing Diagnostic #     27  SALT         Counter:       4   Parms: SMR     MR      
 Computing Diagnostic #     30  UVEL         Counter:       4   Parms: UUR     MR      
           Vector  Mate for  UVEL         Diagnostic #     31  VVEL     exists 
 Computing Diagnostic #     31  VVEL         Counter:       4   Parms: VVR     MR      
           Vector  Mate for  VVEL         Diagnostic #     30  UVEL     exists 
 Computing Diagnostic #    214  SIarea       Counter:       4   Parms: SM      M1      
 Computing Diagnostic #    217  SIheff       Counter:       4   Parms: SM      M1      
 Computing Diagnostic #    219  SIhsnow      Counter:       4   Parms: SM      M1      
 Computing Diagnostic #     83  sIceLoad     Counter:       4   Parms: SM      U1      
 Computing Diagnostic #    223  SIuice       Counter:       4   Parms: UU      M1      
           Vector  Mate for  SIuice       Diagnostic #    224  SIvice   exists 
 Computing Diagnostic #    224  SIvice       Counter:       4   Parms: VV      M1      
           Vector  Mate for  SIvice       Diagnostic #    223  SIuice   exists 
 Computing Diagnostic #    225  SItaux       Counter:       4   Parms: UU      U1      
           Vector  Mate for  SItaux       Diagnostic #    226  SItauy   exists 
 Computing Diagnostic #    226  SItauy       Counter:       4   Parms: VV      U1      
           Vector  Mate for  SItauy       Diagnostic #    225  SItaux   exists 
 Computing Diagnostic #    285  SIareaN      Counter:       4   Parms: SM      MX      
 Computing Diagnostic #    284  SIheffN      Counter:       4   Parms: SM      MX      
 Computing Diagnostic #    286  SIhsnowN     Counter:       4   Parms: SM      MX      
 Compute Stats, Diag. #    214  SIarea    vol(   0 ): 3.580E+14  Parms: SM      M1      
 Compute Stats, Diag. #    217  SIheff    vol(   0 ): 3.580E+14  Parms: SM      M1      
 Compute Stats, Diag. #    219  SIhsnow   vol(   0 ): 3.580E+14  Parms: SM      M1      
 Compute Stats, Diag. #     83  sIceLoad  vol(   0 ): 3.580E+14  Parms: SM      U1      
 Compute Stats, Diag. #    223  SIuice    vol(   0 ): 3.513E+14  Parms: UU      M1      
 Compute Stats, Diag. #    224  SIvice    vol(   0 ): 3.508E+14  Parms: VV      M1      
 Compute Stats, Diag. #    225  SItaux    vol(   0 ): 3.513E+14  Parms: UU      U1      
 Compute Stats, Diag. #    226  SItauy    vol(   0 ): 3.508E+14  Parms: VV      U1      
 cg2d: Sum(rhs),rhsMax =  -2.41537725793620E+01  2.88882709798755E-01
 Compute Stats, Diag. #    214  SIarea    vol(   0 ): 3.580E+14  Parms: SM      M1      
 Compute Stats, Diag. #    217  SIheff    vol(   0 ): 3.580E+14  Parms: SM      M1      
 Compute Stats, Diag. #    219  SIhsnow   vol(   0 ): 3.580E+14  Parms: SM      M1      
 Compute Stats, Diag. #     83  sIceLoad  vol(   0 ): 3.580E+14  Parms: SM      U1      
 Compute Stats, Diag. #    223  SIuice    vol(   0 ): 3.513E+14  Parms: UU      M1      
 Compute Stats, Diag. #    224  SIvice    vol(   0 ): 3.508E+14  Parms: VV      M1      
 Compute Stats, Diag. #    225  SItaux    vol(   0 ): 3.513E+14  Parms: UU      U1      
 Compute Stats, Diag. #    226  SItauy    vol(   0 ): 3.508E+14  Parms: VV      U1      
 cg2d: Sum(rhs),rhsMax =  -2.42673039786724E+01  2.88851113307821E-01
 Compute Stats, Diag. #    214  SIarea    vol(   0 ): 3.580E+14  Parms: SM      M1      
 Compute Stats, Diag. #    217  SIheff    vol(   0 ): 3.580E+14  Parms: SM      M1      
 Compute Stats, Diag. #    219  SIhsnow   vol(   0 ): 3.580E+14  Parms: SM      M1      
 Compute Stats, Diag. #     83  sIceLoad  vol(   0 ): 3.580E+14  Parms: SM      U1      
 Compute Stats, Diag. #    223  SIuice    vol(   0 ): 3.513E+14  Parms: UU      M1      
 Compute Stats, Diag. #    224  SIvice    vol(   0 ): 3.508E+14  Parms: VV      M1      
 Compute Stats, Diag. #    225  SItaux    vol(   0 ): 3.513E+14  Parms: UU      U1      
 Compute Stats, Diag. #    226  SItauy    vol(   0 ): 3.508E+14  Parms: VV      U1      
 cg2d: Sum(rhs),rhsMax =  -2.43599483101886E+01  2.88814556864472E-01
 Compute Stats, Diag. #    214  SIarea    vol(   0 ): 3.580E+14  Parms: SM      M1      
 Compute Stats, Diag. #    217  SIheff    vol(   0 ): 3.580E+14  Parms: SM      M1      
 Compute Stats, Diag. #    219  SIhsnow   vol(   0 ): 3.580E+14  Parms: SM      M1      
 Compute Stats, Diag. #     83  sIceLoad  vol(   0 ): 3.580E+14  Parms: SM      U1      
 Compute Stats, Diag. #    223  SIuice    vol(   0 ): 3.513E+14  Parms: UU      M1      
 Compute Stats, Diag. #    224  SIvice    vol(   0 ): 3.508E+14  Parms: VV      M1      
 Compute Stats, Diag. #    225  SItaux    vol(   0 ): 3.513E+14  Parms: UU      U1      
 Compute Stats, Diag. #    226  SItauy    vol(   0 ): 3.508E+14  Parms: VV      U1      
 cg2d: Sum(rhs),rhsMax =  -2.44480332978707E+01  2.88773581504578E-01
(PID.TID 0000.0001)      cg2d_init_res =   4.57181876873729E-02
(PID.TID 0000.0001)      cg2d_iters(min,last) =      -1      23
(PID.TID 0000.0001)      cg2d_last_res =   2.81866606788209E-05
(PID.TID 0000.0001) // =======================================================
(PID.TID 0000.0001) // Begin MONITOR dynamic field statistics
(PID.TID 0000.0001) // =======================================================
(PID.TID 0000.0001) %MON time_tsnumber                =                   864
(PID.TID 0000.0001) %MON time_secondsf                =   7.7760000000000E+05
(PID.TID 0000.0001) %MON dynstat_eta_max              =   1.0266791146960E+00
(PID.TID 0000.0001) %MON dynstat_eta_min              =  -1.8375657857424E+00
(PID.TID 0000.0001) %MON dynstat_eta_mean             =   7.7336937504919E-04
(PID.TID 0000.0001) %MON dynstat_eta_sd               =   6.2911944521927E-01
(PID.TID 0000.0001) %MON dynstat_eta_del2             =   5.1245673323021E-05
(PID.TID 0000.0001) %MON dynstat_uvel_max             =   7.2112088930169E-01
(PID.TID 0000.0001) %MON dynstat_uvel_min             =  -7.3889061532452E-01
(PID.TID 0000.0001) %MON dynstat_uvel_mean            =   1.3196564987658E-03
(PID.TID 0000.0001) %MON dynstat_uvel_sd              =   1.8223945441644E-02
(PID.TID 0000.0001) %MON dynstat_uvel_del2            =   7.1149763772174E-06
(PID.TID 0000.0001) %MON dynstat_vvel_max             =   5.6830539909068E-01
(PID.TID 0000.0001) %MON dynstat_vvel_min             =  -8.5325986184773E-01
(PID.TID 0000.0001) %MON dynstat_vvel_mean            =   1.0413698056731E-03
(PID.TID 0000.0001) %MON dynstat_vvel_sd              =   1.9393436074936E-02
(PID.TID 0000.0001) %MON dynstat_vvel_del2            =   7.1267011880384E-06
(PID.TID 0000.0001) %MON dynstat_wvel_max             =   2.9521411434222E-04
(PID.TID 0000.0001) %MON dynstat_wvel_min             =  -7.7300743468403E-04
(PID.TID 0000.0001) %MON dynstat_wvel_mean            =  -7.8726520596782E-10
(PID.TID 0000.0001) %MON dynstat_wvel_sd              =   1.8326374710500E-05
(PID.TID 0000.0001) %MON dynstat_wvel_del2            =   1.3280564269780E-08
(PID.TID 0000.0001) %MON dynstat_theta_max            =   3.1953034619003E+01
(PID.TID 0000.0001) %MON dynstat_theta_min            =  -2.0397769261823E+00
(PID.TID 0000.0001) %MON dynstat_theta_mean           =   3.5902274328352E+00
(PID.TID 0000.0001) %MON dynstat_theta_sd             =   4.4367295892293E+00
(PID.TID 0000.0001) %MON dynstat_theta_del2           =   9.1081093277055E-05
(PID.TID 0000.0001) %MON dynstat_salt_max             =   4.0711545752145E+01
(PID.TID 0000.0001) %MON dynstat_salt_min             =   4.8273207179395E+00
(PID.TID 0000.0001) %MON dynstat_salt_mean            =   3.4725564969147E+01
(PID.TID 0000.0001) %MON dynstat_salt_sd              =   3.7708378846200E-01
(PID.TID 0000.0001) %MON dynstat_salt_del2            =   3.5800142170298E-05
(PID.TID 0000.0001) %MON dynstat_sst_max              =   3.1953016149910E+01
(PID.TID 0000.0001) %MON dynstat_sst_min              =  -1.8161521225186E+00
(PID.TID 0000.0001) %MON dynstat_sst_mean             =   1.8470382585066E+01
(PID.TID 0000.0001) %MON dynstat_sst_sd               =   1.0267938589871E+01
(PID.TID 0000.0001) %MON dynstat_sst_del2             =   7.9054127327085E-04
(PID.TID 0000.0001) %MON dynstat_sss_max              =   3.9100247160740E+01
(PID.TID 0000.0001) %MON dynstat_sss_min              =   4.8273207179395E+00
(PID.TID 0000.0001) %MON dynstat_sss_mean             =   3.4700246147013E+01
(PID.TID 0000.0001) %MON dynstat_sss_sd               =   1.1764803170100E+00
(PID.TID 0000.0001) %MON dynstat_sss_del2             =   1.0979858335677E-03
(PID.TID 0000.0001) %MON forcing_qnet_max             =   1.2194903564453E+03
(PID.TID 0000.0001) %MON forcing_qnet_min             =  -8.8688568115234E+02
(PID.TID 0000.0001) %MON forcing_qnet_mean            =  -2.8286644380846E+01
(PID.TID 0000.0001) %MON forcing_qnet_sd              =   2.0900097664354E+02
(PID.TID 0000.0001) %MON forcing_qnet_del2            =   3.2895845425382E-01
(PID.TID 0000.0001) %MON forcing_qsw_max              =   0.0000000000000E+00
(PID.TID 0000.0001) %MON forcing_qsw_min              =  -1.1085162418430E+02
(PID.TID 0000.0001) %MON forcing_qsw_mean             =  -2.2001571472395E+01
(PID.TID 0000.0001) %MON forcing_qsw_sd               =   3.0591569420868E+01
(PID.TID 0000.0001) %MON forcing_qsw_del2             =   1.9532863333613E-02
(PID.TID 0000.0001) %MON forcing_empmr_max            =   9.9717883858830E-04
(PID.TID 0000.0001) %MON forcing_empmr_min            =  -7.2625860571861E-02
(PID.TID 0000.0001) %MON forcing_empmr_mean           =  -3.1857948447584E-06
(PID.TID 0000.0001) %MON forcing_empmr_sd             =   3.3767166257926E-04
(PID.TID 0000.0001) %MON forcing_empmr_del2           =   3.5135423680087E-06
(PID.TID 0000.0001) %MON forcing_fu_max               =   1.1845861077309E+00
(PID.TID 0000.0001) %MON forcing_fu_min               =  -7.6198294758797E-01
(PID.TID 0000.0001) %MON forcing_fu_mean              =   1.6215252594454E-03
(PID.TID 0000.0001) %MON forcing_fu_sd                =   1.1123693874547E-01
(PID.TID 0000.0001) %MON forcing_fu_del2              =   1.4347920059219E-04
(PID.TID 0000.0001) %MON forcing_fv_max               =   6.2665393948555E-01
(PID.TID 0000.0001) %MON forcing_fv_min               =  -6.5222048759460E-01
(PID.TID 0000.0001) %MON forcing_fv_mean              =  -9.3280497528426E-03
(PID.TID 0000.0001) %MON forcing_fv_sd                =   1.0278798295034E-01
(PID.TID 0000.0001) %MON forcing_fv_del2              =   1.1633778945862E-04
(PID.TID 0000.0001) %MON trAdv_CFL_u_max              =   9.7779469137160E-03
(PID.TID 0000.0001) %MON trAdv_CFL_v_max              =   1.2196348069858E-02
(PID.TID 0000.0001) %MON trAdv_CFL_w_max              =   1.8905045121261E-02
(PID.TID 0000.0001) %MON advcfl_uvel_max              =   7.7043259292967E-03
(PID.TID 0000.0001) %MON advcfl_vvel_max              =   1.1304883101861E-02
(PID.TID 0000.0001) %MON advcfl_wvel_max              =   2.4960657169670E-02
(PID.TID 0000.0001) %MON advcfl_W_hf_max              =   2.5040886094394E-02
(PID.TID 0000.0001) %MON pe_b_mean                    =   5.2062505226903E-04
(PID.TID 0000.0001) %MON ke_max                       =   3.6479726793144E-01
(PID.TID 0000.0001) %MON ke_mean                      =   3.4286148508760E-04
(PID.TID 0000.0001) %MON ke_vol                       =   1.3349981528187E+18
(PID.TID 0000.0001) %MON vort_r_min                   =  -8.8593179420434E-06
(PID.TID 0000.0001) %MON vort_r_max                   =   1.4845716283011E-05
(PID.TID 0000.0001) %MON vort_a_mean                  =  -1.9727864647440E-05
(PID.TID 0000.0001) %MON vort_a_sd                    =   7.4542962155457E-05
(PID.TID 0000.0001) %MON vort_p_mean                  =  -2.1760529585008E-05
(PID.TID 0000.0001) %MON vort_p_sd                    =   9.7246517659697E-05
(PID.TID 0000.0001) %MON surfExpan_theta_mean         =  -2.3404961533228E-09
(PID.TID 0000.0001) %MON surfExpan_salt_mean          =   6.6862338129369E-08
(PID.TID 0000.0001) // =======================================================
(PID.TID 0000.0001) // End MONITOR dynamic field statistics
(PID.TID 0000.0001) // =======================================================
(PID.TID 0000.0001) // =======================================================
(PID.TID 0000.0001) // Begin MONITOR SEAICE statistics
(PID.TID 0000.0001) // =======================================================
(PID.TID 0000.0001) %MON seaice_tsnumber              =                   864
(PID.TID 0000.0001) %MON seaice_time_sec              =   7.7760000000000E+05
(PID.TID 0000.0001) %MON seaice_uice_max              =   4.0000000000000E-01
(PID.TID 0000.0001) %MON seaice_uice_min              =  -4.0000000000000E-01
(PID.TID 0000.0001) %MON seaice_uice_mean             =  -8.3054598624025E-03
(PID.TID 0000.0001) %MON seaice_uice_sd               =   1.9802383574176E-01
(PID.TID 0000.0001) %MON seaice_uice_del2             =   2.2931571122150E-04
(PID.TID 0000.0001) %MON seaice_vice_max              =   4.0000000000000E-01
(PID.TID 0000.0001) %MON seaice_vice_min              =  -4.0000000000000E-01
(PID.TID 0000.0001) %MON seaice_vice_mean             =  -2.1960776359499E-02
(PID.TID 0000.0001) %MON seaice_vice_sd               =   2.1302038025672E-01
(PID.TID 0000.0001) %MON seaice_vice_del2             =   2.3932563818061E-04
(PID.TID 0000.0001) %MON seaice_area_max              =   1.0000000000000E+00
(PID.TID 0000.0001) %MON seaice_area_min              =   0.0000000000000E+00
(PID.TID 0000.0001) %MON seaice_area_mean             =   6.5413488124982E-02
(PID.TID 0000.0001) %MON seaice_area_sd               =   2.2904947434330E-01
(PID.TID 0000.0001) %MON seaice_area_del2             =   3.8619833136405E-04
(PID.TID 0000.0001) %MON seaice_heff_max              =   2.4974537484231E+01
(PID.TID 0000.0001) %MON seaice_heff_min              =   0.0000000000000E+00
(PID.TID 0000.0001) %MON seaice_heff_mean             =   2.1220368003338E-01
(PID.TID 0000.0001) %MON seaice_heff_sd               =   1.0661897944175E+00
(PID.TID 0000.0001) %MON seaice_heff_del2             =   3.8327758344060E-03
(PID.TID 0000.0001) %MON seaice_hsnow_max             =   8.2490557288111E+00
(PID.TID 0000.0001) %MON seaice_hsnow_min             =   0.0000000000000E+00
(PID.TID 0000.0001) %MON seaice_hsnow_mean            =   2.3940652824773E-02
(PID.TID 0000.0001) %MON seaice_hsnow_sd              =   1.5598671417688E-01
(PID.TID 0000.0001) %MON seaice_hsnow_del2            =   1.2379450578258E-03
(PID.TID 0000.0001) // =======================================================
(PID.TID 0000.0001) // End MONITOR SEAICE statistics
(PID.TID 0000.0001) // =======================================================
 Computing Diagnostic #     86  oceQnet      Counter:       4   Parms: SM      U1      
 Computing Diagnostic #     87  oceQsw       Counter:       4   Parms: SM      U1      
 Computing Diagnostic #     84  oceFWflx     Counter:       4   Parms: SM      U1      
 Computing Diagnostic #     85  oceSflux     Counter:       4   Parms: SM      U1      
 Computing Diagnostic #     80  oceTAUX      Counter:       4   Parms: UU      U1      
           Vector  Mate for  oceTAUX      Diagnostic #     81  oceTAUY  exists 
 Computing Diagnostic #     81  oceTAUY      Counter:       4   Parms: VV      U1      
           Vector  Mate for  oceTAUY      Diagnostic #     80  oceTAUX  exists 
 Computing Diagnostic #     26  THETA        Counter:       4   Parms: SMR     MR      
 Computing Diagnostic #     27  SALT         Counter:       4   Parms: SMR     MR      
 Computing Diagnostic #     30  UVEL         Counter:       4   Parms: UUR     MR      
           Vector  Mate for  UVEL         Diagnostic #     31  VVEL     exists 
 Computing Diagnostic #     31  VVEL         Counter:       4   Parms: VVR     MR      
           Vector  Mate for  VVEL         Diagnostic #     30  UVEL     exists 
 Computing Diagnostic #    214  SIarea       Counter:       4   Parms: SM      M1      
 Computing Diagnostic #    217  SIheff       Counter:       4   Parms: SM      M1      
 Computing Diagnostic #    219  SIhsnow      Counter:       4   Parms: SM      M1      
 Computing Diagnostic #     83  sIceLoad     Counter:       4   Parms: SM      U1      
 Computing Diagnostic #    223  SIuice       Counter:       4   Parms: UU      M1      
           Vector  Mate for  SIuice       Diagnostic #    224  SIvice   exists 
 Computing Diagnostic #    224  SIvice       Counter:       4   Parms: VV      M1      
           Vector  Mate for  SIvice       Diagnostic #    223  SIuice   exists 
 Computing Diagnostic #    225  SItaux       Counter:       4   Parms: UU      U1      
           Vector  Mate for  SItaux       Diagnostic #    226  SItauy   exists 
 Computing Diagnostic #    226  SItauy       Counter:       4   Parms: VV      U1      
           Vector  Mate for  SItauy       Diagnostic #    225  SItaux   exists 
 Computing Diagnostic #    285  SIareaN      Counter:       4   Parms: SM      MX      
 Computing Diagnostic #    284  SIheffN      Counter:       4   Parms: SM      MX      
 Computing Diagnostic #    286  SIhsnowN     Counter:       4   Parms: SM      MX      
 Compute Stats, Diag. #    214  SIarea    vol(   0 ): 3.580E+14  Parms: SM      M1      
 Compute Stats, Diag. #    217  SIheff    vol(   0 ): 3.580E+14  Parms: SM      M1      
 Compute Stats, Diag. #    219  SIhsnow   vol(   0 ): 3.580E+14  Parms: SM      M1      
 Compute Stats, Diag. #     83  sIceLoad  vol(   0 ): 3.580E+14  Parms: SM      U1      
 Compute Stats, Diag. #    223  SIuice    vol(   0 ): 3.513E+14  Parms: UU      M1      
 Compute Stats, Diag. #    224  SIvice    vol(   0 ): 3.508E+14  Parms: VV      M1      
 Compute Stats, Diag. #    225  SItaux    vol(   0 ): 3.513E+14  Parms: UU      U1      
 Compute Stats, Diag. #    226  SItauy    vol(   0 ): 3.508E+14  Parms: VV      U1      
 cg2d: Sum(rhs),rhsMax =  -2.45510557066879E+01  2.88727250056629E-01
 Compute Stats, Diag. #    214  SIarea    vol(   0 ): 3.580E+14  Parms: SM      M1      
 Compute Stats, Diag. #    217  SIheff    vol(   0 ): 3.580E+14  Parms: SM      M1      
 Compute Stats, Diag. #    219  SIhsnow   vol(   0 ): 3.580E+14  Parms: SM      M1      
 Compute Stats, Diag. #     83  sIceLoad  vol(   0 ): 3.580E+14  Parms: SM      U1      
 Compute Stats, Diag. #    223  SIuice    vol(   0 ): 3.513E+14  Parms: UU      M1      
 Compute Stats, Diag. #    224  SIvice    vol(   0 ): 3.508E+14  Parms: VV      M1      
 Compute Stats, Diag. #    225  SItaux    vol(   0 ): 3.513E+14  Parms: UU      U1      
 Compute Stats, Diag. #    226  SItauy    vol(   0 ): 3.508E+14  Parms: VV      U1      
 cg2d: Sum(rhs),rhsMax =  -2.46337071271208E+01  2.88675455709441E-01
 Compute Stats, Diag. #    214  SIarea    vol(   0 ): 3.580E+14  Parms: SM      M1      
 Compute Stats, Diag. #    217  SIheff    vol(   0 ): 3.580E+14  Parms: SM      M1      
 Compute Stats, Diag. #    219  SIhsnow   vol(   0 ): 3.580E+14  Parms: SM      M1      
 Compute Stats, Diag. #     83  sIceLoad  vol(   0 ): 3.580E+14  Parms: SM      U1      
 Compute Stats, Diag. #    223  SIuice    vol(   0 ): 3.513E+14  Parms: UU      M1      
 Compute Stats, Diag. #    224  SIvice    vol(   0 ): 3.508E+14  Parms: VV      M1      
 Compute Stats, Diag. #    225  SItaux    vol(   0 ): 3.513E+14  Parms: UU      U1      
 Compute Stats, Diag. #    226  SItauy    vol(   0 ): 3.508E+14  Parms: VV      U1      
 cg2d: Sum(rhs),rhsMax =  -2.47015978055429E+01  2.88618097001664E-01
 Compute Stats, Diag. #    214  SIarea    vol(   0 ): 3.580E+14  Parms: SM      M1      
 Compute Stats, Diag. #    217  SIheff    vol(   0 ): 3.580E+14  Parms: SM      M1      
 Compute Stats, Diag. #    219  SIhsnow   vol(   0 ): 3.580E+14  Parms: SM      M1      
 Compute Stats, Diag. #     83  sIceLoad  vol(   0 ): 3.580E+14  Parms: SM      U1      
 Compute Stats, Diag. #    223  SIuice    vol(   0 ): 3.513E+14  Parms: UU      M1      
 Compute Stats, Diag. #    224  SIvice    vol(   0 ): 3.508E+14  Parms: VV      M1      
 Compute Stats, Diag. #    225  SItaux    vol(   0 ): 3.513E+14  Parms: UU      U1      
 Compute Stats, Diag. #    226  SItauy    vol(   0 ): 3.508E+14  Parms: VV      U1      
 cg2d: Sum(rhs),rhsMax =  -2.47640485663442E+01  2.88555549294674E-01
 Computing Diagnostic #     86  oceQnet      Counter:       4   Parms: SM      U1      
 Computing Diagnostic #     87  oceQsw       Counter:       4   Parms: SM      U1      
 Computing Diagnostic #     84  oceFWflx     Counter:       4   Parms: SM      U1      
 Computing Diagnostic #     85  oceSflux     Counter:       4   Parms: SM      U1      
 Computing Diagnostic #     80  oceTAUX      Counter:       4   Parms: UU      U1      
           Vector  Mate for  oceTAUX      Diagnostic #     81  oceTAUY  exists 
 Computing Diagnostic #     81  oceTAUY      Counter:       4   Parms: VV      U1      
           Vector  Mate for  oceTAUY      Diagnostic #     80  oceTAUX  exists 
 Computing Diagnostic #     26  THETA        Counter:       4   Parms: SMR     MR      
 Computing Diagnostic #     27  SALT         Counter:       4   Parms: SMR     MR      
 Computing Diagnostic #     30  UVEL         Counter:       4   Parms: UUR     MR      
           Vector  Mate for  UVEL         Diagnostic #     31  VVEL     exists 
 Computing Diagnostic #     31  VVEL         Counter:       4   Parms: VVR     MR      
           Vector  Mate for  VVEL         Diagnostic #     30  UVEL     exists 
 Computing Diagnostic #    214  SIarea       Counter:       4   Parms: SM      M1      
 Computing Diagnostic #    217  SIheff       Counter:       4   Parms: SM      M1      
 Computing Diagnostic #    219  SIhsnow      Counter:       4   Parms: SM      M1      
 Computing Diagnostic #     83  sIceLoad     Counter:       4   Parms: SM      U1      
 Computing Diagnostic #    223  SIuice       Counter:       4   Parms: UU      M1      
           Vector  Mate for  SIuice       Diagnostic #    224  SIvice   exists 
 Computing Diagnostic #    224  SIvice       Counter:       4   Parms: VV      M1      
           Vector  Mate for  SIvice       Diagnostic #    223  SIuice   exists 
 Computing Diagnostic #    225  SItaux       Counter:       4   Parms: UU      U1      
           Vector  Mate for  SItaux       Diagnostic #    226  SItauy   exists 
 Computing Diagnostic #    226  SItauy       Counter:       4   Parms: VV      U1      
           Vector  Mate for  SItauy       Diagnostic #    225  SItaux   exists 
 Computing Diagnostic #    285  SIareaN      Counter:       4   Parms: SM      MX      
 Computing Diagnostic #    284  SIheffN      Counter:       4   Parms: SM      MX      
 Computing Diagnostic #    286  SIhsnowN     Counter:       4   Parms: SM      MX      
 Compute Stats, Diag. #    214  SIarea    vol(   0 ): 3.580E+14  Parms: SM      M1      
 Compute Stats, Diag. #    217  SIheff    vol(   0 ): 3.580E+14  Parms: SM      M1      
 Compute Stats, Diag. #    219  SIhsnow   vol(   0 ): 3.580E+14  Parms: SM      M1      
 Compute Stats, Diag. #     83  sIceLoad  vol(   0 ): 3.580E+14  Parms: SM      U1      
 Compute Stats, Diag. #    223  SIuice    vol(   0 ): 3.513E+14  Parms: UU      M1      
 Compute Stats, Diag. #    224  SIvice    vol(   0 ): 3.508E+14  Parms: VV      M1      
 Compute Stats, Diag. #    225  SItaux    vol(   0 ): 3.513E+14  Parms: UU      U1      
 Compute Stats, Diag. #    226  SItauy    vol(   0 ): 3.508E+14  Parms: VV      U1      
 cg2d: Sum(rhs),rhsMax =  -2.48117149906084E+01  2.88487378864789E-01
 Compute Stats, Diag. #    214  SIarea    vol(   0 ): 3.580E+14  Parms: SM      M1      
 Compute Stats, Diag. #    217  SIheff    vol(   0 ): 3.580E+14  Parms: SM      M1      
 Compute Stats, Diag. #    219  SIhsnow   vol(   0 ): 3.580E+14  Parms: SM      M1      
 Compute Stats, Diag. #     83  sIceLoad  vol(   0 ): 3.580E+14  Parms: SM      U1      
 Compute Stats, Diag. #    223  SIuice    vol(   0 ): 3.513E+14  Parms: UU      M1      
 Compute Stats, Diag. #    224  SIvice    vol(   0 ): 3.508E+14  Parms: VV      M1      
 Compute Stats, Diag. #    225  SItaux    vol(   0 ): 3.513E+14  Parms: UU      U1      
 Compute Stats, Diag. #    226  SItauy    vol(   0 ): 3.508E+14  Parms: VV      U1      
 cg2d: Sum(rhs),rhsMax =  -2.48624642941567E+01  2.88413543011721E-01
 Compute Stats, Diag. #    214  SIarea    vol(   0 ): 3.580E+14  Parms: SM      M1      
 Compute Stats, Diag. #    217  SIheff    vol(   0 ): 3.580E+14  Parms: SM      M1      
 Compute Stats, Diag. #    219  SIhsnow   vol(   0 ): 3.580E+14  Parms: SM      M1      
 Compute Stats, Diag. #     83  sIceLoad  vol(   0 ): 3.580E+14  Parms: SM      U1      
 Compute Stats, Diag. #    223  SIuice    vol(   0 ): 3.513E+14  Parms: UU      M1      
 Compute Stats, Diag. #    224  SIvice    vol(   0 ): 3.508E+14  Parms: VV      M1      
 Compute Stats, Diag. #    225  SItaux    vol(   0 ): 3.513E+14  Parms: UU      U1      
 Compute Stats, Diag. #    226  SItauy    vol(   0 ): 3.508E+14  Parms: VV      U1      
 cg2d: Sum(rhs),rhsMax =  -2.49286269046608E+01  2.88334219428945E-01
 Compute Stats, Diag. #    214  SIarea    vol(   0 ): 3.580E+14  Parms: SM      M1      
 Compute Stats, Diag. #    217  SIheff    vol(   0 ): 3.580E+14  Parms: SM      M1      
 Compute Stats, Diag. #    219  SIhsnow   vol(   0 ): 3.580E+14  Parms: SM      M1      
 Compute Stats, Diag. #     83  sIceLoad  vol(   0 ): 3.580E+14  Parms: SM      U1      
 Compute Stats, Diag. #    223  SIuice    vol(   0 ): 3.513E+14  Parms: UU      M1      
 Compute Stats, Diag. #    224  SIvice    vol(   0 ): 3.508E+14  Parms: VV      M1      
 Compute Stats, Diag. #    225  SItaux    vol(   0 ): 3.513E+14  Parms: UU      U1      
 Compute Stats, Diag. #    226  SItauy    vol(   0 ): 3.508E+14  Parms: VV      U1      
 cg2d: Sum(rhs),rhsMax =  -2.49778623587697E+01  2.88249631761491E-01
(PID.TID 0000.0001)      cg2d_init_res =   4.35946226803303E-02
(PID.TID 0000.0001)      cg2d_iters(min,last) =      -1      23
(PID.TID 0000.0001)      cg2d_last_res =   2.40183911591871E-05
(PID.TID 0000.0001) // =======================================================
(PID.TID 0000.0001) // Begin MONITOR dynamic field statistics
(PID.TID 0000.0001) // =======================================================
(PID.TID 0000.0001) %MON time_tsnumber                =                   872
(PID.TID 0000.0001) %MON time_secondsf                =   7.8480000000000E+05
(PID.TID 0000.0001) %MON dynstat_eta_max              =   1.0254989045904E+00
(PID.TID 0000.0001) %MON dynstat_eta_min              =  -1.8349964514088E+00
(PID.TID 0000.0001) %MON dynstat_eta_mean             =   7.9012956040710E-04
(PID.TID 0000.0001) %MON dynstat_eta_sd               =   6.2868038155131E-01
(PID.TID 0000.0001) %MON dynstat_eta_del2             =   5.0785505769160E-05
(PID.TID 0000.0001) %MON dynstat_uvel_max             =   7.2100504074009E-01
(PID.TID 0000.0001) %MON dynstat_uvel_min             =  -7.4865092286982E-01
(PID.TID 0000.0001) %MON dynstat_uvel_mean            =   1.3113948041166E-03
(PID.TID 0000.0001) %MON dynstat_uvel_sd              =   1.8205981683602E-02
(PID.TID 0000.0001) %MON dynstat_uvel_del2            =   7.0895562446813E-06
(PID.TID 0000.0001) %MON dynstat_vvel_max             =   5.6153583753983E-01
(PID.TID 0000.0001) %MON dynstat_vvel_min             =  -8.6025118805024E-01
(PID.TID 0000.0001) %MON dynstat_vvel_mean            =   1.0368511944617E-03
(PID.TID 0000.0001) %MON dynstat_vvel_sd              =   1.9393390932380E-02
(PID.TID 0000.0001) %MON dynstat_vvel_del2            =   7.1183467269517E-06
(PID.TID 0000.0001) %MON dynstat_wvel_max             =   2.9533350595389E-04
(PID.TID 0000.0001) %MON dynstat_wvel_min             =  -7.6998255731106E-04
(PID.TID 0000.0001) %MON dynstat_wvel_mean            =  -3.0181183100492E-11
(PID.TID 0000.0001) %MON dynstat_wvel_sd              =   1.8439614868448E-05
(PID.TID 0000.0001) %MON dynstat_wvel_del2            =   1.3265900290334E-08
(PID.TID 0000.0001) %MON dynstat_theta_max            =   3.1933036615216E+01
(PID.TID 0000.0001) %MON dynstat_theta_min            =  -2.0397728349134E+00
(PID.TID 0000.0001) %MON dynstat_theta_mean           =   3.5902424804057E+00
(PID.TID 0000.0001) %MON dynstat_theta_sd             =   4.4368103093949E+00
(PID.TID 0000.0001) %MON dynstat_theta_del2           =   9.1045625102608E-05
(PID.TID 0000.0001) %MON dynstat_salt_max             =   4.0711545155982E+01
(PID.TID 0000.0001) %MON dynstat_salt_min             =   4.8891196259939E+00
(PID.TID 0000.0001) %MON dynstat_salt_mean            =   3.4725564832580E+01
(PID.TID 0000.0001) %MON dynstat_salt_sd              =   3.7708537786170E-01
(PID.TID 0000.0001) %MON dynstat_salt_del2            =   3.5733290333120E-05
(PID.TID 0000.0001) %MON dynstat_sst_max              =   3.1933025820872E+01
(PID.TID 0000.0001) %MON dynstat_sst_min              =  -1.8160681535939E+00
(PID.TID 0000.0001) %MON dynstat_sst_mean             =   1.8473449803706E+01
(PID.TID 0000.0001) %MON dynstat_sst_sd               =   1.0270095532602E+01
(PID.TID 0000.0001) %MON dynstat_sst_del2             =   7.9228501887738E-04
(PID.TID 0000.0001) %MON dynstat_sss_max              =   3.9100119996349E+01
(PID.TID 0000.0001) %MON dynstat_sss_min              =   4.8891196259939E+00
(PID.TID 0000.0001) %MON dynstat_sss_mean             =   3.4700299784998E+01
(PID.TID 0000.0001) %MON dynstat_sss_sd               =   1.1768522318958E+00
(PID.TID 0000.0001) %MON dynstat_sss_del2             =   1.0950152760501E-03
(PID.TID 0000.0001) %MON forcing_qnet_max             =   1.0694724121094E+03
(PID.TID 0000.0001) %MON forcing_qnet_min             =  -1.1274821777344E+03
(PID.TID 0000.0001) %MON forcing_qnet_mean            =  -3.2611736248668E+01
(PID.TID 0000.0001) %MON forcing_qnet_sd              =   2.1393514188532E+02
(PID.TID 0000.0001) %MON forcing_qnet_del2            =   3.3488771477137E-01
(PID.TID 0000.0001) %MON forcing_qsw_max              =   0.0000000000000E+00
(PID.TID 0000.0001) %MON forcing_qsw_min              =  -1.1056908646317E+02
(PID.TID 0000.0001) %MON forcing_qsw_mean             =  -2.2991495900522E+01
(PID.TID 0000.0001) %MON forcing_qsw_sd               =   3.1062941303822E+01
(PID.TID 0000.0001) %MON forcing_qsw_del2             =   1.9554702474289E-02
(PID.TID 0000.0001) %MON forcing_empmr_max            =   1.3430445687845E-03
(PID.TID 0000.0001) %MON forcing_empmr_min            =  -6.3160277903080E-02
(PID.TID 0000.0001) %MON forcing_empmr_mean           =  -1.7807126957238E-06
(PID.TID 0000.0001) %MON forcing_empmr_sd             =   2.6296737849493E-04
(PID.TID 0000.0001) %MON forcing_empmr_del2           =   2.6295385582317E-06
(PID.TID 0000.0001) %MON forcing_fu_max               =   1.1531578302383E+00
(PID.TID 0000.0001) %MON forcing_fu_min               =  -7.5889962911606E-01
(PID.TID 0000.0001) %MON forcing_fu_mean              =   1.0843011885353E-03
(PID.TID 0000.0001) %MON forcing_fu_sd                =   1.1073080101811E-01
(PID.TID 0000.0001) %MON forcing_fu_del2              =   1.4182409986004E-04
(PID.TID 0000.0001) %MON forcing_fv_max               =   6.0426014661789E-01
(PID.TID 0000.0001) %MON forcing_fv_min               =  -7.0805349946022E-01
(PID.TID 0000.0001) %MON forcing_fv_mean              =  -8.6962120829637E-03
(PID.TID 0000.0001) %MON forcing_fv_sd                =   1.0335961070680E-01
(PID.TID 0000.0001) %MON forcing_fv_del2              =   1.1735305195505E-04
(PID.TID 0000.0001) %MON trAdv_CFL_u_max              =   9.5843767770944E-03
(PID.TID 0000.0001) %MON trAdv_CFL_v_max              =   1.2178702345350E-02
(PID.TID 0000.0001) %MON trAdv_CFL_w_max              =   1.8689263883017E-02
(PID.TID 0000.0001) %MON advcfl_uvel_max              =   7.8290815797033E-03
(PID.TID 0000.0001) %MON advcfl_vvel_max              =   1.1287022292727E-02
(PID.TID 0000.0001) %MON advcfl_wvel_max              =   2.2554077927651E-02
(PID.TID 0000.0001) %MON advcfl_W_hf_max              =   2.2626143078251E-02
(PID.TID 0000.0001) %MON pe_b_mean                    =   5.1989864846157E-04
(PID.TID 0000.0001) %MON ke_max                       =   3.7039989792976E-01
(PID.TID 0000.0001) %MON ke_mean                      =   3.4253012541646E-04
(PID.TID 0000.0001) %MON ke_vol                       =   1.3349981592590E+18
(PID.TID 0000.0001) %MON vort_r_min                   =  -9.0120695052058E-06
(PID.TID 0000.0001) %MON vort_r_max                   =   1.3478775318136E-05
(PID.TID 0000.0001) %MON vort_a_mean                  =  -1.9727864647440E-05
(PID.TID 0000.0001) %MON vort_a_sd                    =   7.4542960812950E-05
(PID.TID 0000.0001) %MON vort_p_mean                  =  -2.1760529460059E-05
(PID.TID 0000.0001) %MON vort_p_sd                    =   9.7246512798338E-05
(PID.TID 0000.0001) %MON surfExpan_theta_mean         =   8.4119178036166E-09
(PID.TID 0000.0001) %MON surfExpan_salt_mean          =   5.3487318843406E-08
(PID.TID 0000.0001) // =======================================================
(PID.TID 0000.0001) // End MONITOR dynamic field statistics
(PID.TID 0000.0001) // =======================================================
(PID.TID 0000.0001) // =======================================================
(PID.TID 0000.0001) // Begin MONITOR SEAICE statistics
(PID.TID 0000.0001) // =======================================================
(PID.TID 0000.0001) %MON seaice_tsnumber              =                   872
(PID.TID 0000.0001) %MON seaice_time_sec              =   7.8480000000000E+05
(PID.TID 0000.0001) %MON seaice_uice_max              =   4.0000000000000E-01
(PID.TID 0000.0001) %MON seaice_uice_min              =  -4.0000000000000E-01
(PID.TID 0000.0001) %MON seaice_uice_mean             =  -8.3054598624025E-03
(PID.TID 0000.0001) %MON seaice_uice_sd               =   1.9802383574176E-01
(PID.TID 0000.0001) %MON seaice_uice_del2             =   2.2931571122150E-04
(PID.TID 0000.0001) %MON seaice_vice_max              =   4.0000000000000E-01
(PID.TID 0000.0001) %MON seaice_vice_min              =  -4.0000000000000E-01
(PID.TID 0000.0001) %MON seaice_vice_mean             =  -2.1960776359499E-02
(PID.TID 0000.0001) %MON seaice_vice_sd               =   2.1302038025672E-01
(PID.TID 0000.0001) %MON seaice_vice_del2             =   2.3932563818061E-04
(PID.TID 0000.0001) %MON seaice_area_max              =   1.0000000000000E+00
(PID.TID 0000.0001) %MON seaice_area_min              =   0.0000000000000E+00
(PID.TID 0000.0001) %MON seaice_area_mean             =   6.5388317748568E-02
(PID.TID 0000.0001) %MON seaice_area_sd               =   2.2900714004344E-01
(PID.TID 0000.0001) %MON seaice_area_del2             =   3.8577451897141E-04
(PID.TID 0000.0001) %MON seaice_heff_max              =   2.4972615539213E+01
(PID.TID 0000.0001) %MON seaice_heff_min              =   0.0000000000000E+00
(PID.TID 0000.0001) %MON seaice_heff_mean             =   2.1217626343550E-01
(PID.TID 0000.0001) %MON seaice_heff_sd               =   1.0661633339150E+00
(PID.TID 0000.0001) %MON seaice_heff_del2             =   3.8320973437404E-03
(PID.TID 0000.0001) %MON seaice_hsnow_max             =   8.2484176016587E+00
(PID.TID 0000.0001) %MON seaice_hsnow_min             =   0.0000000000000E+00
(PID.TID 0000.0001) %MON seaice_hsnow_mean            =   2.3936142971552E-02
(PID.TID 0000.0001) %MON seaice_hsnow_sd              =   1.5597803106174E-01
(PID.TID 0000.0001) %MON seaice_hsnow_del2            =   1.2378206793725E-03
(PID.TID 0000.0001) // =======================================================
(PID.TID 0000.0001) // End MONITOR SEAICE statistics
(PID.TID 0000.0001) // =======================================================
 Computing Diagnostic #     86  oceQnet      Counter:       4   Parms: SM      U1      
 Computing Diagnostic #     87  oceQsw       Counter:       4   Parms: SM      U1      
 Computing Diagnostic #     84  oceFWflx     Counter:       4   Parms: SM      U1      
 Computing Diagnostic #     85  oceSflux     Counter:       4   Parms: SM      U1      
 Computing Diagnostic #     80  oceTAUX      Counter:       4   Parms: UU      U1      
           Vector  Mate for  oceTAUX      Diagnostic #     81  oceTAUY  exists 
 Computing Diagnostic #     81  oceTAUY      Counter:       4   Parms: VV      U1      
           Vector  Mate for  oceTAUY      Diagnostic #     80  oceTAUX  exists 
 Computing Diagnostic #     26  THETA        Counter:       4   Parms: SMR     MR      
 Computing Diagnostic #     27  SALT         Counter:       4   Parms: SMR     MR      
 Computing Diagnostic #     30  UVEL         Counter:       4   Parms: UUR     MR      
           Vector  Mate for  UVEL         Diagnostic #     31  VVEL     exists 
 Computing Diagnostic #     31  VVEL         Counter:       4   Parms: VVR     MR      
           Vector  Mate for  VVEL         Diagnostic #     30  UVEL     exists 
 Computing Diagnostic #    214  SIarea       Counter:       4   Parms: SM      M1      
 Computing Diagnostic #    217  SIheff       Counter:       4   Parms: SM      M1      
 Computing Diagnostic #    219  SIhsnow      Counter:       4   Parms: SM      M1      
 Computing Diagnostic #     83  sIceLoad     Counter:       4   Parms: SM      U1      
 Computing Diagnostic #    223  SIuice       Counter:       4   Parms: UU      M1      
           Vector  Mate for  SIuice       Diagnostic #    224  SIvice   exists 
 Computing Diagnostic #    224  SIvice       Counter:       4   Parms: VV      M1      
           Vector  Mate for  SIvice       Diagnostic #    223  SIuice   exists 
 Computing Diagnostic #    225  SItaux       Counter:       4   Parms: UU      U1      
           Vector  Mate for  SItaux       Diagnostic #    226  SItauy   exists 
 Computing Diagnostic #    226  SItauy       Counter:       4   Parms: VV      U1      
           Vector  Mate for  SItauy       Diagnostic #    225  SItaux   exists 
 Computing Diagnostic #    285  SIareaN      Counter:       4   Parms: SM      MX      
 Computing Diagnostic #    284  SIheffN      Counter:       4   Parms: SM      MX      
 Computing Diagnostic #    286  SIhsnowN     Counter:       4   Parms: SM      MX      
 Compute Stats, Diag. #    214  SIarea    vol(   0 ): 3.580E+14  Parms: SM      M1      
 Compute Stats, Diag. #    217  SIheff    vol(   0 ): 3.580E+14  Parms: SM      M1      
 Compute Stats, Diag. #    219  SIhsnow   vol(   0 ): 3.580E+14  Parms: SM      M1      
 Compute Stats, Diag. #     83  sIceLoad  vol(   0 ): 3.580E+14  Parms: SM      U1      
 Compute Stats, Diag. #    223  SIuice    vol(   0 ): 3.513E+14  Parms: UU      M1      
 Compute Stats, Diag. #    224  SIvice    vol(   0 ): 3.508E+14  Parms: VV      M1      
 Compute Stats, Diag. #    225  SItaux    vol(   0 ): 3.513E+14  Parms: UU      U1      
 Compute Stats, Diag. #    226  SItauy    vol(   0 ): 3.508E+14  Parms: VV      U1      
 cg2d: Sum(rhs),rhsMax =  -2.50286706784958E+01  2.88160466598246E-01
 Compute Stats, Diag. #    214  SIarea    vol(   0 ): 3.580E+14  Parms: SM      M1      
 Compute Stats, Diag. #    217  SIheff    vol(   0 ): 3.580E+14  Parms: SM      M1      
 Compute Stats, Diag. #    219  SIhsnow   vol(   0 ): 3.580E+14  Parms: SM      M1      
 Compute Stats, Diag. #     83  sIceLoad  vol(   0 ): 3.580E+14  Parms: SM      U1      
 Compute Stats, Diag. #    223  SIuice    vol(   0 ): 3.513E+14  Parms: UU      M1      
 Compute Stats, Diag. #    224  SIvice    vol(   0 ): 3.508E+14  Parms: VV      M1      
 Compute Stats, Diag. #    225  SItaux    vol(   0 ): 3.513E+14  Parms: UU      U1      
 Compute Stats, Diag. #    226  SItauy    vol(   0 ): 3.508E+14  Parms: VV      U1      
 cg2d: Sum(rhs),rhsMax =  -2.50842123430436E+01  2.88066808898220E-01
 Compute Stats, Diag. #    214  SIarea    vol(   0 ): 3.580E+14  Parms: SM      M1      
 Compute Stats, Diag. #    217  SIheff    vol(   0 ): 3.580E+14  Parms: SM      M1      
 Compute Stats, Diag. #    219  SIhsnow   vol(   0 ): 3.580E+14  Parms: SM      M1      
 Compute Stats, Diag. #     83  sIceLoad  vol(   0 ): 3.580E+14  Parms: SM      U1      
 Compute Stats, Diag. #    223  SIuice    vol(   0 ): 3.513E+14  Parms: UU      M1      
 Compute Stats, Diag. #    224  SIvice    vol(   0 ): 3.508E+14  Parms: VV      M1      
 Compute Stats, Diag. #    225  SItaux    vol(   0 ): 3.513E+14  Parms: UU      U1      
 Compute Stats, Diag. #    226  SItauy    vol(   0 ): 3.508E+14  Parms: VV      U1      
 cg2d: Sum(rhs),rhsMax =  -2.51240750574811E+01  2.87969782542077E-01
 Compute Stats, Diag. #    214  SIarea    vol(   0 ): 3.580E+14  Parms: SM      M1      
 Compute Stats, Diag. #    217  SIheff    vol(   0 ): 3.580E+14  Parms: SM      M1      
 Compute Stats, Diag. #    219  SIhsnow   vol(   0 ): 3.580E+14  Parms: SM      M1      
 Compute Stats, Diag. #     83  sIceLoad  vol(   0 ): 3.580E+14  Parms: SM      U1      
 Compute Stats, Diag. #    223  SIuice    vol(   0 ): 3.513E+14  Parms: UU      M1      
 Compute Stats, Diag. #    224  SIvice    vol(   0 ): 3.508E+14  Parms: VV      M1      
 Compute Stats, Diag. #    225  SItaux    vol(   0 ): 3.513E+14  Parms: UU      U1      
 Compute Stats, Diag. #    226  SItauy    vol(   0 ): 3.508E+14  Parms: VV      U1      
 cg2d: Sum(rhs),rhsMax =  -2.51596899312542E+01  2.87869957956774E-01
 Computing Diagnostic #     86  oceQnet      Counter:       4   Parms: SM      U1      
 Computing Diagnostic #     87  oceQsw       Counter:       4   Parms: SM      U1      
 Computing Diagnostic #     84  oceFWflx     Counter:       4   Parms: SM      U1      
 Computing Diagnostic #     85  oceSflux     Counter:       4   Parms: SM      U1      
 Computing Diagnostic #     80  oceTAUX      Counter:       4   Parms: UU      U1      
           Vector  Mate for  oceTAUX      Diagnostic #     81  oceTAUY  exists 
 Computing Diagnostic #     81  oceTAUY      Counter:       4   Parms: VV      U1      
           Vector  Mate for  oceTAUY      Diagnostic #     80  oceTAUX  exists 
 Computing Diagnostic #     26  THETA        Counter:       4   Parms: SMR     MR      
 Computing Diagnostic #     27  SALT         Counter:       4   Parms: SMR     MR      
 Computing Diagnostic #     30  UVEL         Counter:       4   Parms: UUR     MR      
           Vector  Mate for  UVEL         Diagnostic #     31  VVEL     exists 
 Computing Diagnostic #     31  VVEL         Counter:       4   Parms: VVR     MR      
           Vector  Mate for  VVEL         Diagnostic #     30  UVEL     exists 
 Computing Diagnostic #    214  SIarea       Counter:       4   Parms: SM      M1      
 Computing Diagnostic #    217  SIheff       Counter:       4   Parms: SM      M1      
 Computing Diagnostic #    219  SIhsnow      Counter:       4   Parms: SM      M1      
 Computing Diagnostic #     83  sIceLoad     Counter:       4   Parms: SM      U1      
 Computing Diagnostic #    223  SIuice       Counter:       4   Parms: UU      M1      
           Vector  Mate for  SIuice       Diagnostic #    224  SIvice   exists 
 Computing Diagnostic #    224  SIvice       Counter:       4   Parms: VV      M1      
           Vector  Mate for  SIvice       Diagnostic #    223  SIuice   exists 
 Computing Diagnostic #    225  SItaux       Counter:       4   Parms: UU      U1      
           Vector  Mate for  SItaux       Diagnostic #    226  SItauy   exists 
 Computing Diagnostic #    226  SItauy       Counter:       4   Parms: VV      U1      
           Vector  Mate for  SItauy       Diagnostic #    225  SItaux   exists 
 Computing Diagnostic #    285  SIareaN      Counter:       4   Parms: SM      MX      
 Computing Diagnostic #    284  SIheffN      Counter:       4   Parms: SM      MX      
 Computing Diagnostic #    286  SIhsnowN     Counter:       4   Parms: SM      MX      
 Compute Stats, Diag. #    214  SIarea    vol(   0 ): 3.580E+14  Parms: SM      M1      
 Compute Stats, Diag. #    217  SIheff    vol(   0 ): 3.580E+14  Parms: SM      M1      
 Compute Stats, Diag. #    219  SIhsnow   vol(   0 ): 3.580E+14  Parms: SM      M1      
 Compute Stats, Diag. #     83  sIceLoad  vol(   0 ): 3.580E+14  Parms: SM      U1      
 Compute Stats, Diag. #    223  SIuice    vol(   0 ): 3.513E+14  Parms: UU      M1      
 Compute Stats, Diag. #    224  SIvice    vol(   0 ): 3.508E+14  Parms: VV      M1      
 Compute Stats, Diag. #    225  SItaux    vol(   0 ): 3.513E+14  Parms: UU      U1      
 Compute Stats, Diag. #    226  SItauy    vol(   0 ): 3.508E+14  Parms: VV      U1      
 cg2d: Sum(rhs),rhsMax =  -2.51954670677045E+01  2.87768373639779E-01
 Compute Stats, Diag. #    214  SIarea    vol(   0 ): 3.580E+14  Parms: SM      M1      
 Compute Stats, Diag. #    217  SIheff    vol(   0 ): 3.580E+14  Parms: SM      M1      
 Compute Stats, Diag. #    219  SIhsnow   vol(   0 ): 3.580E+14  Parms: SM      M1      
 Compute Stats, Diag. #     83  sIceLoad  vol(   0 ): 3.580E+14  Parms: SM      U1      
 Compute Stats, Diag. #    223  SIuice    vol(   0 ): 3.513E+14  Parms: UU      M1      
 Compute Stats, Diag. #    224  SIvice    vol(   0 ): 3.508E+14  Parms: VV      M1      
 Compute Stats, Diag. #    225  SItaux    vol(   0 ): 3.513E+14  Parms: UU      U1      
 Compute Stats, Diag. #    226  SItauy    vol(   0 ): 3.508E+14  Parms: VV      U1      
 cg2d: Sum(rhs),rhsMax =  -2.52259872002828E+01  2.87665577164245E-01
 Compute Stats, Diag. #    214  SIarea    vol(   0 ): 3.580E+14  Parms: SM      M1      
 Compute Stats, Diag. #    217  SIheff    vol(   0 ): 3.580E+14  Parms: SM      M1      
 Compute Stats, Diag. #    219  SIhsnow   vol(   0 ): 3.580E+14  Parms: SM      M1      
 Compute Stats, Diag. #     83  sIceLoad  vol(   0 ): 3.580E+14  Parms: SM      U1      
 Compute Stats, Diag. #    223  SIuice    vol(   0 ): 3.513E+14  Parms: UU      M1      
 Compute Stats, Diag. #    224  SIvice    vol(   0 ): 3.508E+14  Parms: VV      M1      
 Compute Stats, Diag. #    225  SItaux    vol(   0 ): 3.513E+14  Parms: UU      U1      
 Compute Stats, Diag. #    226  SItauy    vol(   0 ): 3.508E+14  Parms: VV      U1      
 cg2d: Sum(rhs),rhsMax =  -2.52548332646050E+01  2.87562330100805E-01
 Compute Stats, Diag. #    214  SIarea    vol(   0 ): 3.580E+14  Parms: SM      M1      
 Compute Stats, Diag. #    217  SIheff    vol(   0 ): 3.580E+14  Parms: SM      M1      
 Compute Stats, Diag. #    219  SIhsnow   vol(   0 ): 3.580E+14  Parms: SM      M1      
 Compute Stats, Diag. #     83  sIceLoad  vol(   0 ): 3.580E+14  Parms: SM      U1      
 Compute Stats, Diag. #    223  SIuice    vol(   0 ): 3.513E+14  Parms: UU      M1      
 Compute Stats, Diag. #    224  SIvice    vol(   0 ): 3.508E+14  Parms: VV      M1      
 Compute Stats, Diag. #    225  SItaux    vol(   0 ): 3.513E+14  Parms: UU      U1      
 Compute Stats, Diag. #    226  SItauy    vol(   0 ): 3.508E+14  Parms: VV      U1      
 cg2d: Sum(rhs),rhsMax =  -2.52855269239614E+01  2.87459352152648E-01
(PID.TID 0000.0001)      cg2d_init_res =   4.17346875667698E-02
(PID.TID 0000.0001)      cg2d_iters(min,last) =      -1      23
(PID.TID 0000.0001)      cg2d_last_res =   2.20251612117227E-05
(PID.TID 0000.0001) // =======================================================
(PID.TID 0000.0001) // Begin MONITOR dynamic field statistics
(PID.TID 0000.0001) // =======================================================
(PID.TID 0000.0001) %MON time_tsnumber                =                   880
(PID.TID 0000.0001) %MON time_secondsf                =   7.9200000000000E+05
(PID.TID 0000.0001) %MON dynstat_eta_max              =   1.0246509297432E+00
(PID.TID 0000.0001) %MON dynstat_eta_min              =  -1.8323201198408E+00
(PID.TID 0000.0001) %MON dynstat_eta_mean             =   7.9986197321958E-04
(PID.TID 0000.0001) %MON dynstat_eta_sd               =   6.2828574685077E-01
(PID.TID 0000.0001) %MON dynstat_eta_del2             =   5.0644513829361E-05
(PID.TID 0000.0001) %MON dynstat_uvel_max             =   7.1352280566317E-01
(PID.TID 0000.0001) %MON dynstat_uvel_min             =  -7.5860692488397E-01
(PID.TID 0000.0001) %MON dynstat_uvel_mean            =   1.3022935943647E-03
(PID.TID 0000.0001) %MON dynstat_uvel_sd              =   1.8188479118811E-02
(PID.TID 0000.0001) %MON dynstat_uvel_del2            =   7.0715548894466E-06
(PID.TID 0000.0001) %MON dynstat_vvel_max             =   5.6018155436776E-01
(PID.TID 0000.0001) %MON dynstat_vvel_min             =  -8.6672731452471E-01
(PID.TID 0000.0001) %MON dynstat_vvel_mean            =   1.0323473455423E-03
(PID.TID 0000.0001) %MON dynstat_vvel_sd              =   1.9393376928078E-02
(PID.TID 0000.0001) %MON dynstat_vvel_del2            =   7.1066787831739E-06
(PID.TID 0000.0001) %MON dynstat_wvel_max             =   2.9451823655763E-04
(PID.TID 0000.0001) %MON dynstat_wvel_min             =  -7.6802488646823E-04
(PID.TID 0000.0001) %MON dynstat_wvel_mean            =   9.4573255303426E-10
(PID.TID 0000.0001) %MON dynstat_wvel_sd              =   1.8498036098631E-05
(PID.TID 0000.0001) %MON dynstat_wvel_del2            =   1.3267426236054E-08
(PID.TID 0000.0001) %MON dynstat_theta_max            =   3.1928333676313E+01
(PID.TID 0000.0001) %MON dynstat_theta_min            =  -2.0397685189938E+00
(PID.TID 0000.0001) %MON dynstat_theta_mean           =   3.5902537337852E+00
(PID.TID 0000.0001) %MON dynstat_theta_sd             =   4.4368762939804E+00
(PID.TID 0000.0001) %MON dynstat_theta_del2           =   9.1020392538715E-05
(PID.TID 0000.0001) %MON dynstat_salt_max             =   4.0711544539469E+01
(PID.TID 0000.0001) %MON dynstat_salt_min             =   5.0751646947462E+00
(PID.TID 0000.0001) %MON dynstat_salt_mean            =   3.4725564754001E+01
(PID.TID 0000.0001) %MON dynstat_salt_sd              =   3.7708639335214E-01
(PID.TID 0000.0001) %MON dynstat_salt_del2            =   3.5617139479129E-05
(PID.TID 0000.0001) %MON dynstat_sst_max              =   3.1928333676313E+01
(PID.TID 0000.0001) %MON dynstat_sst_min              =  -1.8144791257555E+00
(PID.TID 0000.0001) %MON dynstat_sst_mean             =   1.8475580652559E+01
(PID.TID 0000.0001) %MON dynstat_sst_sd               =   1.0271710198025E+01
(PID.TID 0000.0001) %MON dynstat_sst_del2             =   7.9465131359170E-04
(PID.TID 0000.0001) %MON dynstat_sss_max              =   3.9099999311861E+01
(PID.TID 0000.0001) %MON dynstat_sss_min              =   5.0751646947462E+00
(PID.TID 0000.0001) %MON dynstat_sss_mean             =   3.4700346704627E+01
(PID.TID 0000.0001) %MON dynstat_sss_sd               =   1.1770947097670E+00
(PID.TID 0000.0001) %MON dynstat_sss_del2             =   1.0894176147250E-03
(PID.TID 0000.0001) %MON forcing_qnet_max             =   6.8038189697266E+02
(PID.TID 0000.0001) %MON forcing_qnet_min             =  -8.1903272241365E+02
(PID.TID 0000.0001) %MON forcing_qnet_mean            =  -1.6328654670099E+01
(PID.TID 0000.0001) %MON forcing_qnet_sd              =   2.0573899247118E+02
(PID.TID 0000.0001) %MON forcing_qnet_del2            =   3.2035670418902E-01
(PID.TID 0000.0001) %MON forcing_qsw_max              =   0.0000000000000E+00
(PID.TID 0000.0001) %MON forcing_qsw_min              =  -1.0965118716217E+02
(PID.TID 0000.0001) %MON forcing_qsw_mean             =  -2.1459610402419E+01
(PID.TID 0000.0001) %MON forcing_qsw_sd               =   3.0014179836488E+01
(PID.TID 0000.0001) %MON forcing_qsw_del2             =   2.1291144947955E-02
(PID.TID 0000.0001) %MON forcing_empmr_max            =   1.7557779792696E-03
(PID.TID 0000.0001) %MON forcing_empmr_min            =  -3.9352938532829E-02
(PID.TID 0000.0001) %MON forcing_empmr_mean           =  -1.1101063223957E-06
(PID.TID 0000.0001) %MON forcing_empmr_sd             =   2.1617940157409E-04
(PID.TID 0000.0001) %MON forcing_empmr_del2           =   2.0615127711964E-06
(PID.TID 0000.0001) %MON forcing_fu_max               =   1.1275280714035E+00
(PID.TID 0000.0001) %MON forcing_fu_min               =  -7.6477193832398E-01
(PID.TID 0000.0001) %MON forcing_fu_mean              =   5.3779236693065E-04
(PID.TID 0000.0001) %MON forcing_fu_sd                =   1.1098760236304E-01
(PID.TID 0000.0001) %MON forcing_fu_del2              =   1.4218308777619E-04
(PID.TID 0000.0001) %MON forcing_fv_max               =   6.0501804947853E-01
(PID.TID 0000.0001) %MON forcing_fv_min               =  -6.6128221154213E-01
(PID.TID 0000.0001) %MON forcing_fv_mean              =  -8.3074626599589E-03
(PID.TID 0000.0001) %MON forcing_fv_sd                =   1.0409741114017E-01
(PID.TID 0000.0001) %MON forcing_fv_del2              =   1.1909416781140E-04
(PID.TID 0000.0001) %MON trAdv_CFL_u_max              =   9.6035613339862E-03
(PID.TID 0000.0001) %MON trAdv_CFL_v_max              =   1.2262380302944E-02
(PID.TID 0000.0001) %MON trAdv_CFL_w_max              =   2.0178328594468E-02
(PID.TID 0000.0001) %MON advcfl_uvel_max              =   7.9557981265205E-03
(PID.TID 0000.0001) %MON advcfl_vvel_max              =   1.1259800834484E-02
(PID.TID 0000.0001) %MON advcfl_wvel_max              =   1.9790422968999E-02
(PID.TID 0000.0001) %MON advcfl_W_hf_max              =   1.9852733245191E-02
(PID.TID 0000.0001) %MON pe_b_mean                    =   5.1924617261486E-04
(PID.TID 0000.0001) %MON ke_max                       =   3.7779356433464E-01
(PID.TID 0000.0001) %MON ke_mean                      =   3.4220679645236E-04
(PID.TID 0000.0001) %MON ke_vol                       =   1.3349981629534E+18
(PID.TID 0000.0001) %MON vort_r_min                   =  -9.1499788648339E-06
(PID.TID 0000.0001) %MON vort_r_max                   =   1.2952590673703E-05
(PID.TID 0000.0001) %MON vort_a_mean                  =  -1.9727864647440E-05
(PID.TID 0000.0001) %MON vort_a_sd                    =   7.4542960066657E-05
(PID.TID 0000.0001) %MON vort_p_mean                  =  -2.1760529373283E-05
(PID.TID 0000.0001) %MON vort_p_sd                    =   9.7246505772598E-05
(PID.TID 0000.0001) %MON surfExpan_theta_mean         =   1.6112414083241E-08
(PID.TID 0000.0001) %MON surfExpan_salt_mean          =   3.9133249803771E-08
(PID.TID 0000.0001) // =======================================================
(PID.TID 0000.0001) // End MONITOR dynamic field statistics
(PID.TID 0000.0001) // =======================================================
(PID.TID 0000.0001) // =======================================================
(PID.TID 0000.0001) // Begin MONITOR SEAICE statistics
(PID.TID 0000.0001) // =======================================================
(PID.TID 0000.0001) %MON seaice_tsnumber              =                   880
(PID.TID 0000.0001) %MON seaice_time_sec              =   7.9200000000000E+05
(PID.TID 0000.0001) %MON seaice_uice_max              =   4.0000000000000E-01
(PID.TID 0000.0001) %MON seaice_uice_min              =  -4.0000000000000E-01
(PID.TID 0000.0001) %MON seaice_uice_mean             =  -8.3054598624025E-03
(PID.TID 0000.0001) %MON seaice_uice_sd               =   1.9802383574176E-01
(PID.TID 0000.0001) %MON seaice_uice_del2             =   2.2931571122150E-04
(PID.TID 0000.0001) %MON seaice_vice_max              =   4.0000000000000E-01
(PID.TID 0000.0001) %MON seaice_vice_min              =  -4.0000000000000E-01
(PID.TID 0000.0001) %MON seaice_vice_mean             =  -2.1960776359499E-02
(PID.TID 0000.0001) %MON seaice_vice_sd               =   2.1302038025672E-01
(PID.TID 0000.0001) %MON seaice_vice_del2             =   2.3932563818061E-04
(PID.TID 0000.0001) %MON seaice_area_max              =   1.0000000000000E+00
(PID.TID 0000.0001) %MON seaice_area_min              =   0.0000000000000E+00
(PID.TID 0000.0001) %MON seaice_area_mean             =   6.5357503621676E-02
(PID.TID 0000.0001) %MON seaice_area_sd               =   2.2895601939655E-01
(PID.TID 0000.0001) %MON seaice_area_del2             =   3.8535916192823E-04
(PID.TID 0000.0001) %MON seaice_heff_max              =   2.4970713141607E+01
(PID.TID 0000.0001) %MON seaice_heff_min              =   0.0000000000000E+00
(PID.TID 0000.0001) %MON seaice_heff_mean             =   2.1214760371818E-01
(PID.TID 0000.0001) %MON seaice_heff_sd               =   1.0661374609465E+00
(PID.TID 0000.0001) %MON seaice_heff_del2             =   3.8314233019051E-03
(PID.TID 0000.0001) %MON seaice_hsnow_max             =   8.2477864797693E+00
(PID.TID 0000.0001) %MON seaice_hsnow_min             =   0.0000000000000E+00
(PID.TID 0000.0001) %MON seaice_hsnow_mean            =   2.3929719887514E-02
(PID.TID 0000.0001) %MON seaice_hsnow_sd              =   1.5596927632218E-01
(PID.TID 0000.0001) %MON seaice_hsnow_del2            =   1.2376963022019E-03
(PID.TID 0000.0001) // =======================================================
(PID.TID 0000.0001) // End MONITOR SEAICE statistics
(PID.TID 0000.0001) // =======================================================
 Computing Diagnostic #     86  oceQnet      Counter:       4   Parms: SM      U1      
 Computing Diagnostic #     87  oceQsw       Counter:       4   Parms: SM      U1      
 Computing Diagnostic #     84  oceFWflx     Counter:       4   Parms: SM      U1      
 Computing Diagnostic #     85  oceSflux     Counter:       4   Parms: SM      U1      
 Computing Diagnostic #     80  oceTAUX      Counter:       4   Parms: UU      U1      
           Vector  Mate for  oceTAUX      Diagnostic #     81  oceTAUY  exists 
 Computing Diagnostic #     81  oceTAUY      Counter:       4   Parms: VV      U1      
           Vector  Mate for  oceTAUY      Diagnostic #     80  oceTAUX  exists 
 Computing Diagnostic #     26  THETA        Counter:       4   Parms: SMR     MR      
 Computing Diagnostic #     27  SALT         Counter:       4   Parms: SMR     MR      
 Computing Diagnostic #     30  UVEL         Counter:       4   Parms: UUR     MR      
           Vector  Mate for  UVEL         Diagnostic #     31  VVEL     exists 
 Computing Diagnostic #     31  VVEL         Counter:       4   Parms: VVR     MR      
           Vector  Mate for  VVEL         Diagnostic #     30  UVEL     exists 
 Computing Diagnostic #    214  SIarea       Counter:       4   Parms: SM      M1      
 Computing Diagnostic #    217  SIheff       Counter:       4   Parms: SM      M1      
 Computing Diagnostic #    219  SIhsnow      Counter:       4   Parms: SM      M1      
 Computing Diagnostic #     83  sIceLoad     Counter:       4   Parms: SM      U1      
 Computing Diagnostic #    223  SIuice       Counter:       4   Parms: UU      M1      
           Vector  Mate for  SIuice       Diagnostic #    224  SIvice   exists 
 Computing Diagnostic #    224  SIvice       Counter:       4   Parms: VV      M1      
           Vector  Mate for  SIvice       Diagnostic #    223  SIuice   exists 
 Computing Diagnostic #    225  SItaux       Counter:       4   Parms: UU      U1      
           Vector  Mate for  SItaux       Diagnostic #    226  SItauy   exists 
 Computing Diagnostic #    226  SItauy       Counter:       4   Parms: VV      U1      
           Vector  Mate for  SItauy       Diagnostic #    225  SItaux   exists 
 Computing Diagnostic #    285  SIareaN      Counter:       4   Parms: SM      MX      
 Computing Diagnostic #    284  SIheffN      Counter:       4   Parms: SM      MX      
 Computing Diagnostic #    286  SIhsnowN     Counter:       4   Parms: SM      MX      
 Compute Stats, Diag. #    214  SIarea    vol(   0 ): 3.580E+14  Parms: SM      M1      
 Compute Stats, Diag. #    217  SIheff    vol(   0 ): 3.580E+14  Parms: SM      M1      
 Compute Stats, Diag. #    219  SIhsnow   vol(   0 ): 3.580E+14  Parms: SM      M1      
 Compute Stats, Diag. #     83  sIceLoad  vol(   0 ): 3.580E+14  Parms: SM      U1      
 Compute Stats, Diag. #    223  SIuice    vol(   0 ): 3.513E+14  Parms: UU      M1      
 Compute Stats, Diag. #    224  SIvice    vol(   0 ): 3.508E+14  Parms: VV      M1      
 Compute Stats, Diag. #    225  SItaux    vol(   0 ): 3.513E+14  Parms: UU      U1      
 Compute Stats, Diag. #    226  SItauy    vol(   0 ): 3.508E+14  Parms: VV      U1      
 cg2d: Sum(rhs),rhsMax =  -2.53141350985012E+01  2.87357687815944E-01
 Compute Stats, Diag. #    214  SIarea    vol(   0 ): 3.580E+14  Parms: SM      M1      
 Compute Stats, Diag. #    217  SIheff    vol(   0 ): 3.580E+14  Parms: SM      M1      
 Compute Stats, Diag. #    219  SIhsnow   vol(   0 ): 3.580E+14  Parms: SM      M1      
 Compute Stats, Diag. #     83  sIceLoad  vol(   0 ): 3.580E+14  Parms: SM      U1      
 Compute Stats, Diag. #    223  SIuice    vol(   0 ): 3.513E+14  Parms: UU      M1      
 Compute Stats, Diag. #    224  SIvice    vol(   0 ): 3.508E+14  Parms: VV      M1      
 Compute Stats, Diag. #    225  SItaux    vol(   0 ): 3.513E+14  Parms: UU      U1      
 Compute Stats, Diag. #    226  SItauy    vol(   0 ): 3.508E+14  Parms: VV      U1      
 cg2d: Sum(rhs),rhsMax =  -2.53421438037569E+01  2.87257772488595E-01
 Compute Stats, Diag. #    214  SIarea    vol(   0 ): 3.580E+14  Parms: SM      M1      
 Compute Stats, Diag. #    217  SIheff    vol(   0 ): 3.580E+14  Parms: SM      M1      
 Compute Stats, Diag. #    219  SIhsnow   vol(   0 ): 3.580E+14  Parms: SM      M1      
 Compute Stats, Diag. #     83  sIceLoad  vol(   0 ): 3.580E+14  Parms: SM      U1      
 Compute Stats, Diag. #    223  SIuice    vol(   0 ): 3.513E+14  Parms: UU      M1      
 Compute Stats, Diag. #    224  SIvice    vol(   0 ): 3.508E+14  Parms: VV      M1      
 Compute Stats, Diag. #    225  SItaux    vol(   0 ): 3.513E+14  Parms: UU      U1      
 Compute Stats, Diag. #    226  SItauy    vol(   0 ): 3.508E+14  Parms: VV      U1      
 cg2d: Sum(rhs),rhsMax =  -2.53654354999852E+01  2.87162228784938E-01
 Compute Stats, Diag. #    214  SIarea    vol(   0 ): 3.580E+14  Parms: SM      M1      
 Compute Stats, Diag. #    217  SIheff    vol(   0 ): 3.580E+14  Parms: SM      M1      
 Compute Stats, Diag. #    219  SIhsnow   vol(   0 ): 3.580E+14  Parms: SM      M1      
 Compute Stats, Diag. #     83  sIceLoad  vol(   0 ): 3.580E+14  Parms: SM      U1      
 Compute Stats, Diag. #    223  SIuice    vol(   0 ): 3.513E+14  Parms: UU      M1      
 Compute Stats, Diag. #    224  SIvice    vol(   0 ): 3.508E+14  Parms: VV      M1      
 Compute Stats, Diag. #    225  SItaux    vol(   0 ): 3.513E+14  Parms: UU      U1      
 Compute Stats, Diag. #    226  SItauy    vol(   0 ): 3.508E+14  Parms: VV      U1      
 cg2d: Sum(rhs),rhsMax =  -2.53838808279049E+01  2.87069459619626E-01
 Computing Diagnostic #     86  oceQnet      Counter:       4   Parms: SM      U1      
 Computing Diagnostic #     87  oceQsw       Counter:       4   Parms: SM      U1      
 Computing Diagnostic #     84  oceFWflx     Counter:       4   Parms: SM      U1      
 Computing Diagnostic #     85  oceSflux     Counter:       4   Parms: SM      U1      
 Computing Diagnostic #     80  oceTAUX      Counter:       4   Parms: UU      U1      
           Vector  Mate for  oceTAUX      Diagnostic #     81  oceTAUY  exists 
 Computing Diagnostic #     81  oceTAUY      Counter:       4   Parms: VV      U1      
           Vector  Mate for  oceTAUY      Diagnostic #     80  oceTAUX  exists 
 Computing Diagnostic #     26  THETA        Counter:       4   Parms: SMR     MR      
 Computing Diagnostic #     27  SALT         Counter:       4   Parms: SMR     MR      
 Computing Diagnostic #     30  UVEL         Counter:       4   Parms: UUR     MR      
           Vector  Mate for  UVEL         Diagnostic #     31  VVEL     exists 
 Computing Diagnostic #     31  VVEL         Counter:       4   Parms: VVR     MR      
           Vector  Mate for  VVEL         Diagnostic #     30  UVEL     exists 
 Computing Diagnostic #    214  SIarea       Counter:       4   Parms: SM      M1      
 Computing Diagnostic #    217  SIheff       Counter:       4   Parms: SM      M1      
 Computing Diagnostic #    219  SIhsnow      Counter:       4   Parms: SM      M1      
 Computing Diagnostic #     83  sIceLoad     Counter:       4   Parms: SM      U1      
 Computing Diagnostic #    223  SIuice       Counter:       4   Parms: UU      M1      
           Vector  Mate for  SIuice       Diagnostic #    224  SIvice   exists 
 Computing Diagnostic #    224  SIvice       Counter:       4   Parms: VV      M1      
           Vector  Mate for  SIvice       Diagnostic #    223  SIuice   exists 
 Computing Diagnostic #    225  SItaux       Counter:       4   Parms: UU      U1      
           Vector  Mate for  SItaux       Diagnostic #    226  SItauy   exists 
 Computing Diagnostic #    226  SItauy       Counter:       4   Parms: VV      U1      
           Vector  Mate for  SItauy       Diagnostic #    225  SItaux   exists 
 Computing Diagnostic #    285  SIareaN      Counter:       4   Parms: SM      MX      
 Computing Diagnostic #    284  SIheffN      Counter:       4   Parms: SM      MX      
 Computing Diagnostic #    286  SIhsnowN     Counter:       4   Parms: SM      MX      
 Compute Stats, Diag. #    214  SIarea    vol(   0 ): 3.580E+14  Parms: SM      M1      
 Compute Stats, Diag. #    217  SIheff    vol(   0 ): 3.580E+14  Parms: SM      M1      
 Compute Stats, Diag. #    219  SIhsnow   vol(   0 ): 3.580E+14  Parms: SM      M1      
 Compute Stats, Diag. #     83  sIceLoad  vol(   0 ): 3.580E+14  Parms: SM      U1      
 Compute Stats, Diag. #    223  SIuice    vol(   0 ): 3.513E+14  Parms: UU      M1      
 Compute Stats, Diag. #    224  SIvice    vol(   0 ): 3.508E+14  Parms: VV      M1      
 Compute Stats, Diag. #    225  SItaux    vol(   0 ): 3.513E+14  Parms: UU      U1      
 Compute Stats, Diag. #    226  SItauy    vol(   0 ): 3.508E+14  Parms: VV      U1      
 cg2d: Sum(rhs),rhsMax =  -2.54053107026193E+01  2.86980137802737E-01
 Compute Stats, Diag. #    214  SIarea    vol(   0 ): 3.580E+14  Parms: SM      M1      
 Compute Stats, Diag. #    217  SIheff    vol(   0 ): 3.580E+14  Parms: SM      M1      
 Compute Stats, Diag. #    219  SIhsnow   vol(   0 ): 3.580E+14  Parms: SM      M1      
 Compute Stats, Diag. #     83  sIceLoad  vol(   0 ): 3.580E+14  Parms: SM      U1      
 Compute Stats, Diag. #    223  SIuice    vol(   0 ): 3.513E+14  Parms: UU      M1      
 Compute Stats, Diag. #    224  SIvice    vol(   0 ): 3.508E+14  Parms: VV      M1      
 Compute Stats, Diag. #    225  SItaux    vol(   0 ): 3.513E+14  Parms: UU      U1      
 Compute Stats, Diag. #    226  SItauy    vol(   0 ): 3.508E+14  Parms: VV      U1      
 cg2d: Sum(rhs),rhsMax =  -2.54337709728343E+01  2.86894792907742E-01
 Compute Stats, Diag. #    214  SIarea    vol(   0 ): 3.580E+14  Parms: SM      M1      
 Compute Stats, Diag. #    217  SIheff    vol(   0 ): 3.580E+14  Parms: SM      M1      
 Compute Stats, Diag. #    219  SIhsnow   vol(   0 ): 3.580E+14  Parms: SM      M1      
 Compute Stats, Diag. #     83  sIceLoad  vol(   0 ): 3.580E+14  Parms: SM      U1      
 Compute Stats, Diag. #    223  SIuice    vol(   0 ): 3.513E+14  Parms: UU      M1      
 Compute Stats, Diag. #    224  SIvice    vol(   0 ): 3.508E+14  Parms: VV      M1      
 Compute Stats, Diag. #    225  SItaux    vol(   0 ): 3.513E+14  Parms: UU      U1      
 Compute Stats, Diag. #    226  SItauy    vol(   0 ): 3.508E+14  Parms: VV      U1      
 cg2d: Sum(rhs),rhsMax =  -2.54624571396184E+01  2.86813590830002E-01
 Compute Stats, Diag. #    214  SIarea    vol(   0 ): 3.580E+14  Parms: SM      M1      
 Compute Stats, Diag. #    217  SIheff    vol(   0 ): 3.580E+14  Parms: SM      M1      
 Compute Stats, Diag. #    219  SIhsnow   vol(   0 ): 3.580E+14  Parms: SM      M1      
 Compute Stats, Diag. #     83  sIceLoad  vol(   0 ): 3.580E+14  Parms: SM      U1      
 Compute Stats, Diag. #    223  SIuice    vol(   0 ): 3.513E+14  Parms: UU      M1      
 Compute Stats, Diag. #    224  SIvice    vol(   0 ): 3.508E+14  Parms: VV      M1      
 Compute Stats, Diag. #    225  SItaux    vol(   0 ): 3.513E+14  Parms: UU      U1      
 Compute Stats, Diag. #    226  SItauy    vol(   0 ): 3.508E+14  Parms: VV      U1      
 cg2d: Sum(rhs),rhsMax =  -2.55010112419189E+01  2.86736997372044E-01
(PID.TID 0000.0001)      cg2d_init_res =   4.35856311643577E-02
(PID.TID 0000.0001)      cg2d_iters(min,last) =      -1      23
(PID.TID 0000.0001)      cg2d_last_res =   2.19198569069772E-05
(PID.TID 0000.0001) // =======================================================
(PID.TID 0000.0001) // Begin MONITOR dynamic field statistics
(PID.TID 0000.0001) // =======================================================
(PID.TID 0000.0001) %MON time_tsnumber                =                   888
(PID.TID 0000.0001) %MON time_secondsf                =   7.9920000000000E+05
(PID.TID 0000.0001) %MON dynstat_eta_max              =   1.0237976075793E+00
(PID.TID 0000.0001) %MON dynstat_eta_min              =  -1.8296970941733E+00
(PID.TID 0000.0001) %MON dynstat_eta_mean             =   8.0667843040788E-04
(PID.TID 0000.0001) %MON dynstat_eta_sd               =   6.2790404840538E-01
(PID.TID 0000.0001) %MON dynstat_eta_del2             =   5.0684518178073E-05
(PID.TID 0000.0001) %MON dynstat_uvel_max             =   7.0262526281019E-01
(PID.TID 0000.0001) %MON dynstat_uvel_min             =  -7.6695973938419E-01
(PID.TID 0000.0001) %MON dynstat_uvel_mean            =   1.2939340666277E-03
(PID.TID 0000.0001) %MON dynstat_uvel_sd              =   1.8163826718056E-02
(PID.TID 0000.0001) %MON dynstat_uvel_del2            =   7.0614928177147E-06
(PID.TID 0000.0001) %MON dynstat_vvel_max             =   5.5873135116246E-01
(PID.TID 0000.0001) %MON dynstat_vvel_min             =  -8.7203653185717E-01
(PID.TID 0000.0001) %MON dynstat_vvel_mean            =   1.0278660843529E-03
(PID.TID 0000.0001) %MON dynstat_vvel_sd              =   1.9393579100553E-02
(PID.TID 0000.0001) %MON dynstat_vvel_del2            =   7.0970131848418E-06
(PID.TID 0000.0001) %MON dynstat_wvel_max             =   2.9376461414530E-04
(PID.TID 0000.0001) %MON dynstat_wvel_min             =  -7.6660894780952E-04
(PID.TID 0000.0001) %MON dynstat_wvel_mean            =   1.8659094914503E-09
(PID.TID 0000.0001) %MON dynstat_wvel_sd              =   1.8499642234658E-05
(PID.TID 0000.0001) %MON dynstat_wvel_del2            =   1.3286948866766E-08
(PID.TID 0000.0001) %MON dynstat_theta_max            =   3.1941455119550E+01
(PID.TID 0000.0001) %MON dynstat_theta_min            =  -2.0397640496744E+00
(PID.TID 0000.0001) %MON dynstat_theta_mean           =   3.5902547221024E+00
(PID.TID 0000.0001) %MON dynstat_theta_sd             =   4.4369006174318E+00
(PID.TID 0000.0001) %MON dynstat_theta_del2           =   9.1000685940314E-05
(PID.TID 0000.0001) %MON dynstat_salt_max             =   4.0711543954710E+01
(PID.TID 0000.0001) %MON dynstat_salt_min             =   5.2433014561683E+00
(PID.TID 0000.0001) %MON dynstat_salt_mean            =   3.4725564696098E+01
(PID.TID 0000.0001) %MON dynstat_salt_sd              =   3.7708737902312E-01
(PID.TID 0000.0001) %MON dynstat_salt_del2            =   3.5497732217706E-05
(PID.TID 0000.0001) %MON dynstat_sst_max              =   3.1941455119550E+01
(PID.TID 0000.0001) %MON dynstat_sst_min              =  -1.8119077991791E+00
(PID.TID 0000.0001) %MON dynstat_sst_mean             =   1.8474746346934E+01
(PID.TID 0000.0001) %MON dynstat_sst_sd               =   1.0272386917602E+01
(PID.TID 0000.0001) %MON dynstat_sst_del2             =   7.9617559236600E-04
(PID.TID 0000.0001) %MON dynstat_sss_max              =   3.9099881236315E+01
(PID.TID 0000.0001) %MON dynstat_sss_min              =   5.2433014561683E+00
(PID.TID 0000.0001) %MON dynstat_sss_mean             =   3.4700375003212E+01
(PID.TID 0000.0001) %MON dynstat_sss_sd               =   1.1772978438114E+00
(PID.TID 0000.0001) %MON dynstat_sss_del2             =   1.0837624778877E-03
(PID.TID 0000.0001) %MON forcing_qnet_max             =   1.0739504394531E+03
(PID.TID 0000.0001) %MON forcing_qnet_min             =  -7.2323485762728E+02
(PID.TID 0000.0001) %MON forcing_qnet_mean            =   7.4757295035733E+00
(PID.TID 0000.0001) %MON forcing_qnet_sd              =   1.8182121773018E+02
(PID.TID 0000.0001) %MON forcing_qnet_del2            =   3.1434980396074E-01
(PID.TID 0000.0001) %MON forcing_qsw_max              =   0.0000000000000E+00
(PID.TID 0000.0001) %MON forcing_qsw_min              =  -1.0946075822516E+02
(PID.TID 0000.0001) %MON forcing_qsw_mean             =  -1.8766257996990E+01
(PID.TID 0000.0001) %MON forcing_qsw_sd               =   2.7301826144421E+01
(PID.TID 0000.0001) %MON forcing_qsw_del2             =   2.2447585669519E-02
(PID.TID 0000.0001) %MON forcing_empmr_max            =   1.7753093270585E-03
(PID.TID 0000.0001) %MON forcing_empmr_min            =  -4.0391355752945E-02
(PID.TID 0000.0001) %MON forcing_empmr_mean           =  -1.3943972018368E-06
(PID.TID 0000.0001) %MON forcing_empmr_sd             =   2.0449785463150E-04
(PID.TID 0000.0001) %MON forcing_empmr_del2           =   2.0970100155023E-06
(PID.TID 0000.0001) %MON forcing_fu_max               =   1.1068190336227E+00
(PID.TID 0000.0001) %MON forcing_fu_min               =  -7.1518012881279E-01
(PID.TID 0000.0001) %MON forcing_fu_mean              =  -1.9418023562521E-05
(PID.TID 0000.0001) %MON forcing_fu_sd                =   1.1085016327789E-01
(PID.TID 0000.0001) %MON forcing_fu_del2              =   1.4360813202781E-04
(PID.TID 0000.0001) %MON forcing_fv_max               =   6.0294955968857E-01
(PID.TID 0000.0001) %MON forcing_fv_min               =  -6.5731519460678E-01
(PID.TID 0000.0001) %MON forcing_fv_mean              =  -8.7936528303057E-03
(PID.TID 0000.0001) %MON forcing_fv_sd                =   1.0545359506968E-01
(PID.TID 0000.0001) %MON forcing_fv_del2              =   1.2197176594808E-04
(PID.TID 0000.0001) %MON trAdv_CFL_u_max              =   9.7143821216204E-03
(PID.TID 0000.0001) %MON trAdv_CFL_v_max              =   1.2683444911425E-02
(PID.TID 0000.0001) %MON trAdv_CFL_w_max              =   2.0260777231896E-02
(PID.TID 0000.0001) %MON advcfl_uvel_max              =   8.0647795756949E-03
(PID.TID 0000.0001) %MON advcfl_vvel_max              =   1.1230651357615E-02
(PID.TID 0000.0001) %MON advcfl_wvel_max              =   1.7229956638074E-02
(PID.TID 0000.0001) %MON advcfl_W_hf_max              =   1.7899918971937E-02
(PID.TID 0000.0001) %MON pe_b_mean                    =   5.1861547012227E-04
(PID.TID 0000.0001) %MON ke_max                       =   3.8425052782887E-01
(PID.TID 0000.0001) %MON ke_mean                      =   3.4176360531494E-04
(PID.TID 0000.0001) %MON ke_vol                       =   1.3349981653047E+18
(PID.TID 0000.0001) %MON vort_r_min                   =  -9.2229469477935E-06
(PID.TID 0000.0001) %MON vort_r_max                   =   1.3108087062004E-05
(PID.TID 0000.0001) %MON vort_a_mean                  =  -1.9727864647440E-05
(PID.TID 0000.0001) %MON vort_a_sd                    =   7.4542959241235E-05
(PID.TID 0000.0001) %MON vort_p_mean                  =  -2.1760529322093E-05
(PID.TID 0000.0001) %MON vort_p_sd                    =   9.7246489778387E-05
(PID.TID 0000.0001) %MON surfExpan_theta_mean         =   4.0224176988546E-08
(PID.TID 0000.0001) %MON surfExpan_salt_mean          =   3.4597380170444E-08
(PID.TID 0000.0001) // =======================================================
(PID.TID 0000.0001) // End MONITOR dynamic field statistics
(PID.TID 0000.0001) // =======================================================
(PID.TID 0000.0001) // =======================================================
(PID.TID 0000.0001) // Begin MONITOR SEAICE statistics
(PID.TID 0000.0001) // =======================================================
(PID.TID 0000.0001) %MON seaice_tsnumber              =                   888
(PID.TID 0000.0001) %MON seaice_time_sec              =   7.9920000000000E+05
(PID.TID 0000.0001) %MON seaice_uice_max              =   4.0000000000000E-01
(PID.TID 0000.0001) %MON seaice_uice_min              =  -4.0000000000000E-01
(PID.TID 0000.0001) %MON seaice_uice_mean             =  -8.3054598624025E-03
(PID.TID 0000.0001) %MON seaice_uice_sd               =   1.9802383574176E-01
(PID.TID 0000.0001) %MON seaice_uice_del2             =   2.2931571122150E-04
(PID.TID 0000.0001) %MON seaice_vice_max              =   4.0000000000000E-01
(PID.TID 0000.0001) %MON seaice_vice_min              =  -4.0000000000000E-01
(PID.TID 0000.0001) %MON seaice_vice_mean             =  -2.1960776359499E-02
(PID.TID 0000.0001) %MON seaice_vice_sd               =   2.1302038025672E-01
(PID.TID 0000.0001) %MON seaice_vice_del2             =   2.3932563818061E-04
(PID.TID 0000.0001) %MON seaice_area_max              =   1.0000000000000E+00
(PID.TID 0000.0001) %MON seaice_area_min              =   0.0000000000000E+00
(PID.TID 0000.0001) %MON seaice_area_mean             =   6.5321773982114E-02
(PID.TID 0000.0001) %MON seaice_area_sd               =   2.2889468580719E-01
(PID.TID 0000.0001) %MON seaice_area_del2             =   3.8493163807978E-04
(PID.TID 0000.0001) %MON seaice_heff_max              =   2.4968834224623E+01
(PID.TID 0000.0001) %MON seaice_heff_min              =   0.0000000000000E+00
(PID.TID 0000.0001) %MON seaice_heff_mean             =   2.1211704530876E-01
(PID.TID 0000.0001) %MON seaice_heff_sd               =   1.0661119066672E+00
(PID.TID 0000.0001) %MON seaice_heff_del2             =   3.8307548957760E-03
(PID.TID 0000.0001) %MON seaice_hsnow_max             =   8.2471646198246E+00
(PID.TID 0000.0001) %MON seaice_hsnow_min             =   0.0000000000000E+00
(PID.TID 0000.0001) %MON seaice_hsnow_mean            =   2.3923190519642E-02
(PID.TID 0000.0001) %MON seaice_hsnow_sd              =   1.5595975279821E-01
(PID.TID 0000.0001) %MON seaice_hsnow_del2            =   1.2375725064593E-03
(PID.TID 0000.0001) // =======================================================
(PID.TID 0000.0001) // End MONITOR SEAICE statistics
(PID.TID 0000.0001) // =======================================================
 Computing Diagnostic #     86  oceQnet      Counter:       4   Parms: SM      U1      
 Computing Diagnostic #     87  oceQsw       Counter:       4   Parms: SM      U1      
 Computing Diagnostic #     84  oceFWflx     Counter:       4   Parms: SM      U1      
 Computing Diagnostic #     85  oceSflux     Counter:       4   Parms: SM      U1      
 Computing Diagnostic #     80  oceTAUX      Counter:       4   Parms: UU      U1      
           Vector  Mate for  oceTAUX      Diagnostic #     81  oceTAUY  exists 
 Computing Diagnostic #     81  oceTAUY      Counter:       4   Parms: VV      U1      
           Vector  Mate for  oceTAUY      Diagnostic #     80  oceTAUX  exists 
 Computing Diagnostic #     26  THETA        Counter:       4   Parms: SMR     MR      
 Computing Diagnostic #     27  SALT         Counter:       4   Parms: SMR     MR      
 Computing Diagnostic #     30  UVEL         Counter:       4   Parms: UUR     MR      
           Vector  Mate for  UVEL         Diagnostic #     31  VVEL     exists 
 Computing Diagnostic #     31  VVEL         Counter:       4   Parms: VVR     MR      
           Vector  Mate for  VVEL         Diagnostic #     30  UVEL     exists 
 Computing Diagnostic #    214  SIarea       Counter:       4   Parms: SM      M1      
 Computing Diagnostic #    217  SIheff       Counter:       4   Parms: SM      M1      
 Computing Diagnostic #    219  SIhsnow      Counter:       4   Parms: SM      M1      
 Computing Diagnostic #     83  sIceLoad     Counter:       4   Parms: SM      U1      
 Computing Diagnostic #    223  SIuice       Counter:       4   Parms: UU      M1      
           Vector  Mate for  SIuice       Diagnostic #    224  SIvice   exists 
 Computing Diagnostic #    224  SIvice       Counter:       4   Parms: VV      M1      
           Vector  Mate for  SIvice       Diagnostic #    223  SIuice   exists 
 Computing Diagnostic #    225  SItaux       Counter:       4   Parms: UU      U1      
           Vector  Mate for  SItaux       Diagnostic #    226  SItauy   exists 
 Computing Diagnostic #    226  SItauy       Counter:       4   Parms: VV      U1      
           Vector  Mate for  SItauy       Diagnostic #    225  SItaux   exists 
 Computing Diagnostic #    285  SIareaN      Counter:       4   Parms: SM      MX      
 Computing Diagnostic #    284  SIheffN      Counter:       4   Parms: SM      MX      
 Computing Diagnostic #    286  SIhsnowN     Counter:       4   Parms: SM      MX      
 Compute Stats, Diag. #    214  SIarea    vol(   0 ): 3.580E+14  Parms: SM      M1      
 Compute Stats, Diag. #    217  SIheff    vol(   0 ): 3.580E+14  Parms: SM      M1      
 Compute Stats, Diag. #    219  SIhsnow   vol(   0 ): 3.580E+14  Parms: SM      M1      
 Compute Stats, Diag. #     83  sIceLoad  vol(   0 ): 3.580E+14  Parms: SM      U1      
 Compute Stats, Diag. #    223  SIuice    vol(   0 ): 3.513E+14  Parms: UU      M1      
 Compute Stats, Diag. #    224  SIvice    vol(   0 ): 3.508E+14  Parms: VV      M1      
 Compute Stats, Diag. #    225  SItaux    vol(   0 ): 3.513E+14  Parms: UU      U1      
 Compute Stats, Diag. #    226  SItauy    vol(   0 ): 3.508E+14  Parms: VV      U1      
 cg2d: Sum(rhs),rhsMax =  -2.55390808068331E+01  2.86664700352781E-01
 Compute Stats, Diag. #    214  SIarea    vol(   0 ): 3.580E+14  Parms: SM      M1      
 Compute Stats, Diag. #    217  SIheff    vol(   0 ): 3.580E+14  Parms: SM      M1      
 Compute Stats, Diag. #    219  SIhsnow   vol(   0 ): 3.580E+14  Parms: SM      M1      
 Compute Stats, Diag. #     83  sIceLoad  vol(   0 ): 3.580E+14  Parms: SM      U1      
 Compute Stats, Diag. #    223  SIuice    vol(   0 ): 3.513E+14  Parms: UU      M1      
 Compute Stats, Diag. #    224  SIvice    vol(   0 ): 3.508E+14  Parms: VV      M1      
 Compute Stats, Diag. #    225  SItaux    vol(   0 ): 3.513E+14  Parms: UU      U1      
 Compute Stats, Diag. #    226  SItauy    vol(   0 ): 3.508E+14  Parms: VV      U1      
 cg2d: Sum(rhs),rhsMax =  -2.55849695374319E+01  2.86597331630689E-01
 Compute Stats, Diag. #    214  SIarea    vol(   0 ): 3.580E+14  Parms: SM      M1      
 Compute Stats, Diag. #    217  SIheff    vol(   0 ): 3.580E+14  Parms: SM      M1      
 Compute Stats, Diag. #    219  SIhsnow   vol(   0 ): 3.580E+14  Parms: SM      M1      
 Compute Stats, Diag. #     83  sIceLoad  vol(   0 ): 3.580E+14  Parms: SM      U1      
 Compute Stats, Diag. #    223  SIuice    vol(   0 ): 3.513E+14  Parms: UU      M1      
 Compute Stats, Diag. #    224  SIvice    vol(   0 ): 3.508E+14  Parms: VV      M1      
 Compute Stats, Diag. #    225  SItaux    vol(   0 ): 3.513E+14  Parms: UU      U1      
 Compute Stats, Diag. #    226  SItauy    vol(   0 ): 3.508E+14  Parms: VV      U1      
 cg2d: Sum(rhs),rhsMax =  -2.56342877511951E+01  2.86534403132625E-01
 Compute Stats, Diag. #    214  SIarea    vol(   0 ): 3.580E+14  Parms: SM      M1      
 Compute Stats, Diag. #    217  SIheff    vol(   0 ): 3.580E+14  Parms: SM      M1      
 Compute Stats, Diag. #    219  SIhsnow   vol(   0 ): 3.580E+14  Parms: SM      M1      
 Compute Stats, Diag. #     83  sIceLoad  vol(   0 ): 3.580E+14  Parms: SM      U1      
 Compute Stats, Diag. #    223  SIuice    vol(   0 ): 3.513E+14  Parms: UU      M1      
 Compute Stats, Diag. #    224  SIvice    vol(   0 ): 3.508E+14  Parms: VV      M1      
 Compute Stats, Diag. #    225  SItaux    vol(   0 ): 3.513E+14  Parms: UU      U1      
 Compute Stats, Diag. #    226  SItauy    vol(   0 ): 3.508E+14  Parms: VV      U1      
 cg2d: Sum(rhs),rhsMax =  -2.56843251876155E+01  2.86476571900425E-01
 Computing Diagnostic #     86  oceQnet      Counter:       4   Parms: SM      U1      
 Computing Diagnostic #     87  oceQsw       Counter:       4   Parms: SM      U1      
 Computing Diagnostic #     84  oceFWflx     Counter:       4   Parms: SM      U1      
 Computing Diagnostic #     85  oceSflux     Counter:       4   Parms: SM      U1      
 Computing Diagnostic #     80  oceTAUX      Counter:       4   Parms: UU      U1      
           Vector  Mate for  oceTAUX      Diagnostic #     81  oceTAUY  exists 
 Computing Diagnostic #     81  oceTAUY      Counter:       4   Parms: VV      U1      
           Vector  Mate for  oceTAUY      Diagnostic #     80  oceTAUX  exists 
 Computing Diagnostic #     26  THETA        Counter:       4   Parms: SMR     MR      
 Computing Diagnostic #     27  SALT         Counter:       4   Parms: SMR     MR      
 Computing Diagnostic #     30  UVEL         Counter:       4   Parms: UUR     MR      
           Vector  Mate for  UVEL         Diagnostic #     31  VVEL     exists 
 Computing Diagnostic #     31  VVEL         Counter:       4   Parms: VVR     MR      
           Vector  Mate for  VVEL         Diagnostic #     30  UVEL     exists 
 Computing Diagnostic #    214  SIarea       Counter:       4   Parms: SM      M1      
 Computing Diagnostic #    217  SIheff       Counter:       4   Parms: SM      M1      
 Computing Diagnostic #    219  SIhsnow      Counter:       4   Parms: SM      M1      
 Computing Diagnostic #     83  sIceLoad     Counter:       4   Parms: SM      U1      
 Computing Diagnostic #    223  SIuice       Counter:       4   Parms: UU      M1      
           Vector  Mate for  SIuice       Diagnostic #    224  SIvice   exists 
 Computing Diagnostic #    224  SIvice       Counter:       4   Parms: VV      M1      
           Vector  Mate for  SIvice       Diagnostic #    223  SIuice   exists 
 Computing Diagnostic #    225  SItaux       Counter:       4   Parms: UU      U1      
           Vector  Mate for  SItaux       Diagnostic #    226  SItauy   exists 
 Computing Diagnostic #    226  SItauy       Counter:       4   Parms: VV      U1      
           Vector  Mate for  SItauy       Diagnostic #    225  SItaux   exists 
 Computing Diagnostic #    285  SIareaN      Counter:       4   Parms: SM      MX      
 Computing Diagnostic #    284  SIheffN      Counter:       4   Parms: SM      MX      
 Computing Diagnostic #    286  SIhsnowN     Counter:       4   Parms: SM      MX      
 Compute Stats, Diag. #    214  SIarea    vol(   0 ): 3.580E+14  Parms: SM      M1      
 Compute Stats, Diag. #    217  SIheff    vol(   0 ): 3.580E+14  Parms: SM      M1      
 Compute Stats, Diag. #    219  SIhsnow   vol(   0 ): 3.580E+14  Parms: SM      M1      
 Compute Stats, Diag. #     83  sIceLoad  vol(   0 ): 3.580E+14  Parms: SM      U1      
 Compute Stats, Diag. #    223  SIuice    vol(   0 ): 3.513E+14  Parms: UU      M1      
 Compute Stats, Diag. #    224  SIvice    vol(   0 ): 3.508E+14  Parms: VV      M1      
 Compute Stats, Diag. #    225  SItaux    vol(   0 ): 3.513E+14  Parms: UU      U1      
 Compute Stats, Diag. #    226  SItauy    vol(   0 ): 3.508E+14  Parms: VV      U1      
 cg2d: Sum(rhs),rhsMax =  -2.57376780999781E+01  2.86422951895923E-01
 Compute Stats, Diag. #    214  SIarea    vol(   0 ): 3.580E+14  Parms: SM      M1      
 Compute Stats, Diag. #    217  SIheff    vol(   0 ): 3.580E+14  Parms: SM      M1      
 Compute Stats, Diag. #    219  SIhsnow   vol(   0 ): 3.580E+14  Parms: SM      M1      
 Compute Stats, Diag. #     83  sIceLoad  vol(   0 ): 3.580E+14  Parms: SM      U1      
 Compute Stats, Diag. #    223  SIuice    vol(   0 ): 3.513E+14  Parms: UU      M1      
 Compute Stats, Diag. #    224  SIvice    vol(   0 ): 3.508E+14  Parms: VV      M1      
 Compute Stats, Diag. #    225  SItaux    vol(   0 ): 3.513E+14  Parms: UU      U1      
 Compute Stats, Diag. #    226  SItauy    vol(   0 ): 3.508E+14  Parms: VV      U1      
 cg2d: Sum(rhs),rhsMax =  -2.57902100808960E+01  2.86374247740267E-01
 Compute Stats, Diag. #    214  SIarea    vol(   0 ): 3.580E+14  Parms: SM      M1      
 Compute Stats, Diag. #    217  SIheff    vol(   0 ): 3.580E+14  Parms: SM      M1      
 Compute Stats, Diag. #    219  SIhsnow   vol(   0 ): 3.580E+14  Parms: SM      M1      
 Compute Stats, Diag. #     83  sIceLoad  vol(   0 ): 3.580E+14  Parms: SM      U1      
 Compute Stats, Diag. #    223  SIuice    vol(   0 ): 3.513E+14  Parms: UU      M1      
 Compute Stats, Diag. #    224  SIvice    vol(   0 ): 3.508E+14  Parms: VV      M1      
 Compute Stats, Diag. #    225  SItaux    vol(   0 ): 3.513E+14  Parms: UU      U1      
 Compute Stats, Diag. #    226  SItauy    vol(   0 ): 3.508E+14  Parms: VV      U1      
 cg2d: Sum(rhs),rhsMax =  -2.58452328595575E+01  2.86329755994938E-01
 Compute Stats, Diag. #    214  SIarea    vol(   0 ): 3.580E+14  Parms: SM      M1      
 Compute Stats, Diag. #    217  SIheff    vol(   0 ): 3.580E+14  Parms: SM      M1      
 Compute Stats, Diag. #    219  SIhsnow   vol(   0 ): 3.580E+14  Parms: SM      M1      
 Compute Stats, Diag. #     83  sIceLoad  vol(   0 ): 3.580E+14  Parms: SM      U1      
 Compute Stats, Diag. #    223  SIuice    vol(   0 ): 3.513E+14  Parms: UU      M1      
 Compute Stats, Diag. #    224  SIvice    vol(   0 ): 3.508E+14  Parms: VV      M1      
 Compute Stats, Diag. #    225  SItaux    vol(   0 ): 3.513E+14  Parms: UU      U1      
 Compute Stats, Diag. #    226  SItauy    vol(   0 ): 3.508E+14  Parms: VV      U1      
 cg2d: Sum(rhs),rhsMax =  -2.58952624584784E+01  2.86289382618975E-01
(PID.TID 0000.0001)      cg2d_init_res =   4.62268337197240E-02
(PID.TID 0000.0001)      cg2d_iters(min,last) =      -1      22
(PID.TID 0000.0001)      cg2d_last_res =   2.82055756718533E-05
(PID.TID 0000.0001) // =======================================================
(PID.TID 0000.0001) // Begin MONITOR dynamic field statistics
(PID.TID 0000.0001) // =======================================================
(PID.TID 0000.0001) %MON time_tsnumber                =                   896
(PID.TID 0000.0001) %MON time_secondsf                =   8.0640000000000E+05
(PID.TID 0000.0001) %MON dynstat_eta_max              =   1.0225163711394E+00
(PID.TID 0000.0001) %MON dynstat_eta_min              =  -1.8275018949451E+00
(PID.TID 0000.0001) %MON dynstat_eta_mean             =   8.1914985554262E-04
(PID.TID 0000.0001) %MON dynstat_eta_sd               =   6.2749728004996E-01
(PID.TID 0000.0001) %MON dynstat_eta_del2             =   5.0702775204074E-05
(PID.TID 0000.0001) %MON dynstat_uvel_max             =   6.9584237305457E-01
(PID.TID 0000.0001) %MON dynstat_uvel_min             =  -7.7391779934045E-01
(PID.TID 0000.0001) %MON dynstat_uvel_mean            =   1.2869344993506E-03
(PID.TID 0000.0001) %MON dynstat_uvel_sd              =   1.8132941441782E-02
(PID.TID 0000.0001) %MON dynstat_uvel_del2            =   7.0585259628636E-06
(PID.TID 0000.0001) %MON dynstat_vvel_max             =   5.5693874948232E-01
(PID.TID 0000.0001) %MON dynstat_vvel_min             =  -8.7550747032284E-01
(PID.TID 0000.0001) %MON dynstat_vvel_mean            =   1.0219646968435E-03
(PID.TID 0000.0001) %MON dynstat_vvel_sd              =   1.9397503859563E-02
(PID.TID 0000.0001) %MON dynstat_vvel_del2            =   7.0885308627978E-06
(PID.TID 0000.0001) %MON dynstat_wvel_max             =   2.9377143480519E-04
(PID.TID 0000.0001) %MON dynstat_wvel_min             =  -7.6527528020210E-04
(PID.TID 0000.0001) %MON dynstat_wvel_mean            =   2.1932695003743E-09
(PID.TID 0000.0001) %MON dynstat_wvel_sd              =   1.8469609276835E-05
(PID.TID 0000.0001) %MON dynstat_wvel_del2            =   1.3317032211365E-08
(PID.TID 0000.0001) %MON dynstat_theta_max            =   3.1957104011619E+01
(PID.TID 0000.0001) %MON dynstat_theta_min            =  -2.0397593829527E+00
(PID.TID 0000.0001) %MON dynstat_theta_mean           =   3.5902447568887E+00
(PID.TID 0000.0001) %MON dynstat_theta_sd             =   4.4368829061982E+00
(PID.TID 0000.0001) %MON dynstat_theta_del2           =   9.0980852286907E-05
(PID.TID 0000.0001) %MON dynstat_salt_max             =   4.0711543421053E+01
(PID.TID 0000.0001) %MON dynstat_salt_min             =   5.3665097925358E+00
(PID.TID 0000.0001) %MON dynstat_salt_mean            =   3.4725564590305E+01
(PID.TID 0000.0001) %MON dynstat_salt_sd              =   3.7708855769005E-01
(PID.TID 0000.0001) %MON dynstat_salt_del2            =   3.5490129655394E-05
(PID.TID 0000.0001) %MON dynstat_sst_max              =   3.1957104011619E+01
(PID.TID 0000.0001) %MON dynstat_sst_min              =  -1.8103318739740E+00
(PID.TID 0000.0001) %MON dynstat_sst_mean             =   1.8470799880041E+01
(PID.TID 0000.0001) %MON dynstat_sst_sd               =   1.0272583818491E+01
(PID.TID 0000.0001) %MON dynstat_sst_del2             =   7.9742770278091E-04
(PID.TID 0000.0001) %MON dynstat_sss_max              =   3.9099766318398E+01
(PID.TID 0000.0001) %MON dynstat_sss_min              =   5.3665097925358E+00
(PID.TID 0000.0001) %MON dynstat_sss_mean             =   3.4700383306586E+01
(PID.TID 0000.0001) %MON dynstat_sss_sd               =   1.1775622394405E+00
(PID.TID 0000.0001) %MON dynstat_sss_del2             =   1.0840998668282E-03
(PID.TID 0000.0001) %MON forcing_qnet_max             =   6.7902764892578E+02
(PID.TID 0000.0001) %MON forcing_qnet_min             =  -6.6104956054688E+02
(PID.TID 0000.0001) %MON forcing_qnet_mean            =   3.0757291576745E+01
(PID.TID 0000.0001) %MON forcing_qnet_sd              =   1.6614351213367E+02
(PID.TID 0000.0001) %MON forcing_qnet_del2            =   3.0653342377074E-01
(PID.TID 0000.0001) %MON forcing_qsw_max              =   0.0000000000000E+00
(PID.TID 0000.0001) %MON forcing_qsw_min              =  -1.0923783677514E+02
(PID.TID 0000.0001) %MON forcing_qsw_mean             =  -1.6215916481982E+01
(PID.TID 0000.0001) %MON forcing_qsw_sd               =   2.5542843304593E+01
(PID.TID 0000.0001) %MON forcing_qsw_del2             =   2.1162111259508E-02
(PID.TID 0000.0001) %MON forcing_empmr_max            =   1.1119249975309E-03
(PID.TID 0000.0001) %MON forcing_empmr_min            =  -6.3273467123508E-02
(PID.TID 0000.0001) %MON forcing_empmr_mean           =  -1.8094347576833E-06
(PID.TID 0000.0001) %MON forcing_empmr_sd             =   2.5561595824778E-04
(PID.TID 0000.0001) %MON forcing_empmr_del2           =   3.3718139960776E-06
(PID.TID 0000.0001) %MON forcing_fu_max               =   1.0519118905067E+00
(PID.TID 0000.0001) %MON forcing_fu_min               =  -8.5148486495018E-01
(PID.TID 0000.0001) %MON forcing_fu_mean              =  -8.2388604838262E-05
(PID.TID 0000.0001) %MON forcing_fu_sd                =   1.1126126314170E-01
(PID.TID 0000.0001) %MON forcing_fu_del2              =   1.4465810983493E-04
(PID.TID 0000.0001) %MON forcing_fv_max               =   6.8469169735909E-01
(PID.TID 0000.0001) %MON forcing_fv_min               =  -6.3751995563507E-01
(PID.TID 0000.0001) %MON forcing_fv_mean              =  -9.7008045868459E-03
(PID.TID 0000.0001) %MON forcing_fv_sd                =   1.0715479295460E-01
(PID.TID 0000.0001) %MON forcing_fv_del2              =   1.2530198096130E-04
(PID.TID 0000.0001) %MON trAdv_CFL_u_max              =   9.8209741128129E-03
(PID.TID 0000.0001) %MON trAdv_CFL_v_max              =   1.3026382904024E-02
(PID.TID 0000.0001) %MON trAdv_CFL_w_max              =   2.0268918860822E-02
(PID.TID 0000.0001) %MON advcfl_uvel_max              =   8.1696019187954E-03
(PID.TID 0000.0001) %MON advcfl_vvel_max              =   1.1194619578745E-02
(PID.TID 0000.0001) %MON advcfl_wvel_max              =   1.7153898539630E-02
(PID.TID 0000.0001) %MON advcfl_W_hf_max              =   1.7990059529997E-02
(PID.TID 0000.0001) %MON pe_b_mean                    =   5.1794377565570E-04
(PID.TID 0000.0001) %MON ke_max                       =   3.8955229508048E-01
(PID.TID 0000.0001) %MON ke_mean                      =   3.4128201335859E-04
(PID.TID 0000.0001) %MON ke_vol                       =   1.3349981696397E+18
(PID.TID 0000.0001) %MON vort_r_min                   =  -9.1917318235725E-06
(PID.TID 0000.0001) %MON vort_r_max                   =   1.3131043472392E-05
(PID.TID 0000.0001) %MON vort_a_mean                  =  -1.9727864647440E-05
(PID.TID 0000.0001) %MON vort_a_sd                    =   7.4542957525761E-05
(PID.TID 0000.0001) %MON vort_p_mean                  =  -2.1760529259809E-05
(PID.TID 0000.0001) %MON vort_p_sd                    =   9.7246458603776E-05
(PID.TID 0000.0001) %MON surfExpan_theta_mean         =   6.9869427767086E-08
(PID.TID 0000.0001) %MON surfExpan_salt_mean          =   4.1823613872587E-08
(PID.TID 0000.0001) // =======================================================
(PID.TID 0000.0001) // End MONITOR dynamic field statistics
(PID.TID 0000.0001) // =======================================================
(PID.TID 0000.0001) // =======================================================
(PID.TID 0000.0001) // Begin MONITOR SEAICE statistics
(PID.TID 0000.0001) // =======================================================
(PID.TID 0000.0001) %MON seaice_tsnumber              =                   896
(PID.TID 0000.0001) %MON seaice_time_sec              =   8.0640000000000E+05
(PID.TID 0000.0001) %MON seaice_uice_max              =   4.0000000000000E-01
(PID.TID 0000.0001) %MON seaice_uice_min              =  -4.0000000000000E-01
(PID.TID 0000.0001) %MON seaice_uice_mean             =  -8.3054598624025E-03
(PID.TID 0000.0001) %MON seaice_uice_sd               =   1.9802383574176E-01
(PID.TID 0000.0001) %MON seaice_uice_del2             =   2.2931571122150E-04
(PID.TID 0000.0001) %MON seaice_vice_max              =   4.0000000000000E-01
(PID.TID 0000.0001) %MON seaice_vice_min              =  -4.0000000000000E-01
(PID.TID 0000.0001) %MON seaice_vice_mean             =  -2.1960776359499E-02
(PID.TID 0000.0001) %MON seaice_vice_sd               =   2.1302038025672E-01
(PID.TID 0000.0001) %MON seaice_vice_del2             =   2.3932563818061E-04
(PID.TID 0000.0001) %MON seaice_area_max              =   1.0000000000000E+00
(PID.TID 0000.0001) %MON seaice_area_min              =   0.0000000000000E+00
(PID.TID 0000.0001) %MON seaice_area_mean             =   6.5288042266469E-02
(PID.TID 0000.0001) %MON seaice_area_sd               =   2.2883577576714E-01
(PID.TID 0000.0001) %MON seaice_area_del2             =   3.8448959231637E-04
(PID.TID 0000.0001) %MON seaice_heff_max              =   2.4966975095333E+01
(PID.TID 0000.0001) %MON seaice_heff_min              =   0.0000000000000E+00
(PID.TID 0000.0001) %MON seaice_heff_mean             =   2.1208717951996E-01
(PID.TID 0000.0001) %MON seaice_heff_sd               =   1.0660868493077E+00
(PID.TID 0000.0001) %MON seaice_heff_del2             =   3.8300942189684E-03
(PID.TID 0000.0001) %MON seaice_hsnow_max             =   8.2465493883647E+00
(PID.TID 0000.0001) %MON seaice_hsnow_min             =   0.0000000000000E+00
(PID.TID 0000.0001) %MON seaice_hsnow_mean            =   2.3920218187915E-02
(PID.TID 0000.0001) %MON seaice_hsnow_sd              =   1.5595173893834E-01
(PID.TID 0000.0001) %MON seaice_hsnow_del2            =   1.2374477774230E-03
(PID.TID 0000.0001) // =======================================================
(PID.TID 0000.0001) // End MONITOR SEAICE statistics
(PID.TID 0000.0001) // =======================================================
 Computing Diagnostic #     86  oceQnet      Counter:       4   Parms: SM      U1      
 Computing Diagnostic #     87  oceQsw       Counter:       4   Parms: SM      U1      
 Computing Diagnostic #     84  oceFWflx     Counter:       4   Parms: SM      U1      
 Computing Diagnostic #     85  oceSflux     Counter:       4   Parms: SM      U1      
 Computing Diagnostic #     80  oceTAUX      Counter:       4   Parms: UU      U1      
           Vector  Mate for  oceTAUX      Diagnostic #     81  oceTAUY  exists 
 Computing Diagnostic #     81  oceTAUY      Counter:       4   Parms: VV      U1      
           Vector  Mate for  oceTAUY      Diagnostic #     80  oceTAUX  exists 
 Computing Diagnostic #     26  THETA        Counter:       4   Parms: SMR     MR      
 Computing Diagnostic #     27  SALT         Counter:       4   Parms: SMR     MR      
 Computing Diagnostic #     30  UVEL         Counter:       4   Parms: UUR     MR      
           Vector  Mate for  UVEL         Diagnostic #     31  VVEL     exists 
 Computing Diagnostic #     31  VVEL         Counter:       4   Parms: VVR     MR      
           Vector  Mate for  VVEL         Diagnostic #     30  UVEL     exists 
 Computing Diagnostic #    214  SIarea       Counter:       4   Parms: SM      M1      
 Computing Diagnostic #    217  SIheff       Counter:       4   Parms: SM      M1      
 Computing Diagnostic #    219  SIhsnow      Counter:       4   Parms: SM      M1      
 Computing Diagnostic #     83  sIceLoad     Counter:       4   Parms: SM      U1      
 Computing Diagnostic #    223  SIuice       Counter:       4   Parms: UU      M1      
           Vector  Mate for  SIuice       Diagnostic #    224  SIvice   exists 
 Computing Diagnostic #    224  SIvice       Counter:       4   Parms: VV      M1      
           Vector  Mate for  SIvice       Diagnostic #    223  SIuice   exists 
 Computing Diagnostic #    225  SItaux       Counter:       4   Parms: UU      U1      
           Vector  Mate for  SItaux       Diagnostic #    226  SItauy   exists 
 Computing Diagnostic #    226  SItauy       Counter:       4   Parms: VV      U1      
           Vector  Mate for  SItauy       Diagnostic #    225  SItaux   exists 
 Computing Diagnostic #    285  SIareaN      Counter:       4   Parms: SM      MX      
 Computing Diagnostic #    284  SIheffN      Counter:       4   Parms: SM      MX      
 Computing Diagnostic #    286  SIhsnowN     Counter:       4   Parms: SM      MX      
 Compute Stats, Diag. #    214  SIarea    vol(   0 ): 3.580E+14  Parms: SM      M1      
 Compute Stats, Diag. #    217  SIheff    vol(   0 ): 3.580E+14  Parms: SM      M1      
 Compute Stats, Diag. #    219  SIhsnow   vol(   0 ): 3.580E+14  Parms: SM      M1      
 Compute Stats, Diag. #     83  sIceLoad  vol(   0 ): 3.580E+14  Parms: SM      U1      
 Compute Stats, Diag. #    223  SIuice    vol(   0 ): 3.513E+14  Parms: UU      M1      
 Compute Stats, Diag. #    224  SIvice    vol(   0 ): 3.508E+14  Parms: VV      M1      
 Compute Stats, Diag. #    225  SItaux    vol(   0 ): 3.513E+14  Parms: UU      U1      
 Compute Stats, Diag. #    226  SItauy    vol(   0 ): 3.508E+14  Parms: VV      U1      
 cg2d: Sum(rhs),rhsMax =  -2.59517520398340E+01  2.86252638016238E-01
 Compute Stats, Diag. #    214  SIarea    vol(   0 ): 3.580E+14  Parms: SM      M1      
 Compute Stats, Diag. #    217  SIheff    vol(   0 ): 3.580E+14  Parms: SM      M1      
 Compute Stats, Diag. #    219  SIhsnow   vol(   0 ): 3.580E+14  Parms: SM      M1      
 Compute Stats, Diag. #     83  sIceLoad  vol(   0 ): 3.580E+14  Parms: SM      U1      
 Compute Stats, Diag. #    223  SIuice    vol(   0 ): 3.513E+14  Parms: UU      M1      
 Compute Stats, Diag. #    224  SIvice    vol(   0 ): 3.508E+14  Parms: VV      M1      
 Compute Stats, Diag. #    225  SItaux    vol(   0 ): 3.513E+14  Parms: UU      U1      
 Compute Stats, Diag. #    226  SItauy    vol(   0 ): 3.508E+14  Parms: VV      U1      
 cg2d: Sum(rhs),rhsMax =  -2.60096671645790E+01  2.86219297538182E-01
 Compute Stats, Diag. #    214  SIarea    vol(   0 ): 3.580E+14  Parms: SM      M1      
 Compute Stats, Diag. #    217  SIheff    vol(   0 ): 3.580E+14  Parms: SM      M1      
 Compute Stats, Diag. #    219  SIhsnow   vol(   0 ): 3.580E+14  Parms: SM      M1      
 Compute Stats, Diag. #     83  sIceLoad  vol(   0 ): 3.580E+14  Parms: SM      U1      
 Compute Stats, Diag. #    223  SIuice    vol(   0 ): 3.513E+14  Parms: UU      M1      
 Compute Stats, Diag. #    224  SIvice    vol(   0 ): 3.508E+14  Parms: VV      M1      
 Compute Stats, Diag. #    225  SItaux    vol(   0 ): 3.513E+14  Parms: UU      U1      
 Compute Stats, Diag. #    226  SItauy    vol(   0 ): 3.508E+14  Parms: VV      U1      
 cg2d: Sum(rhs),rhsMax =  -2.60678332037302E+01  2.86189265590262E-01
 Compute Stats, Diag. #    214  SIarea    vol(   0 ): 3.580E+14  Parms: SM      M1      
 Compute Stats, Diag. #    217  SIheff    vol(   0 ): 3.580E+14  Parms: SM      M1      
 Compute Stats, Diag. #    219  SIhsnow   vol(   0 ): 3.580E+14  Parms: SM      M1      
 Compute Stats, Diag. #     83  sIceLoad  vol(   0 ): 3.580E+14  Parms: SM      U1      
 Compute Stats, Diag. #    223  SIuice    vol(   0 ): 3.513E+14  Parms: UU      M1      
 Compute Stats, Diag. #    224  SIvice    vol(   0 ): 3.508E+14  Parms: VV      M1      
 Compute Stats, Diag. #    225  SItaux    vol(   0 ): 3.513E+14  Parms: UU      U1      
 Compute Stats, Diag. #    226  SItauy    vol(   0 ): 3.508E+14  Parms: VV      U1      
 cg2d: Sum(rhs),rhsMax =  -2.61278642447725E+01  2.86158508564148E-01
 Computing Diagnostic #     86  oceQnet      Counter:       4   Parms: SM      U1      
 Computing Diagnostic #     87  oceQsw       Counter:       4   Parms: SM      U1      
 Computing Diagnostic #     84  oceFWflx     Counter:       4   Parms: SM      U1      
 Computing Diagnostic #     85  oceSflux     Counter:       4   Parms: SM      U1      
 Computing Diagnostic #     80  oceTAUX      Counter:       4   Parms: UU      U1      
           Vector  Mate for  oceTAUX      Diagnostic #     81  oceTAUY  exists 
 Computing Diagnostic #     81  oceTAUY      Counter:       4   Parms: VV      U1      
           Vector  Mate for  oceTAUY      Diagnostic #     80  oceTAUX  exists 
 Computing Diagnostic #     26  THETA        Counter:       4   Parms: SMR     MR      
 Computing Diagnostic #     27  SALT         Counter:       4   Parms: SMR     MR      
 Computing Diagnostic #     30  UVEL         Counter:       4   Parms: UUR     MR      
           Vector  Mate for  UVEL         Diagnostic #     31  VVEL     exists 
 Computing Diagnostic #     31  VVEL         Counter:       4   Parms: VVR     MR      
           Vector  Mate for  VVEL         Diagnostic #     30  UVEL     exists 
 Computing Diagnostic #    214  SIarea       Counter:       4   Parms: SM      M1      
 Computing Diagnostic #    217  SIheff       Counter:       4   Parms: SM      M1      
 Computing Diagnostic #    219  SIhsnow      Counter:       4   Parms: SM      M1      
 Computing Diagnostic #     83  sIceLoad     Counter:       4   Parms: SM      U1      
 Computing Diagnostic #    223  SIuice       Counter:       4   Parms: UU      M1      
           Vector  Mate for  SIuice       Diagnostic #    224  SIvice   exists 
 Computing Diagnostic #    224  SIvice       Counter:       4   Parms: VV      M1      
           Vector  Mate for  SIvice       Diagnostic #    223  SIuice   exists 
 Computing Diagnostic #    225  SItaux       Counter:       4   Parms: UU      U1      
           Vector  Mate for  SItaux       Diagnostic #    226  SItauy   exists 
 Computing Diagnostic #    226  SItauy       Counter:       4   Parms: VV      U1      
           Vector  Mate for  SItauy       Diagnostic #    225  SItaux   exists 
 Computing Diagnostic #    285  SIareaN      Counter:       4   Parms: SM      MX      
 Computing Diagnostic #    284  SIheffN      Counter:       4   Parms: SM      MX      
 Computing Diagnostic #    286  SIhsnowN     Counter:       4   Parms: SM      MX      
 Compute Stats, Diag. #    214  SIarea    vol(   0 ): 3.580E+14  Parms: SM      M1      
 Compute Stats, Diag. #    217  SIheff    vol(   0 ): 3.580E+14  Parms: SM      M1      
 Compute Stats, Diag. #    219  SIhsnow   vol(   0 ): 3.580E+14  Parms: SM      M1      
 Compute Stats, Diag. #     83  sIceLoad  vol(   0 ): 3.580E+14  Parms: SM      U1      
 Compute Stats, Diag. #    223  SIuice    vol(   0 ): 3.513E+14  Parms: UU      M1      
 Compute Stats, Diag. #    224  SIvice    vol(   0 ): 3.508E+14  Parms: VV      M1      
 Compute Stats, Diag. #    225  SItaux    vol(   0 ): 3.513E+14  Parms: UU      U1      
 Compute Stats, Diag. #    226  SItauy    vol(   0 ): 3.508E+14  Parms: VV      U1      
 cg2d: Sum(rhs),rhsMax =  -2.61987072488665E+01  2.86130722874703E-01
 Compute Stats, Diag. #    214  SIarea    vol(   0 ): 3.580E+14  Parms: SM      M1      
 Compute Stats, Diag. #    217  SIheff    vol(   0 ): 3.580E+14  Parms: SM      M1      
 Compute Stats, Diag. #    219  SIhsnow   vol(   0 ): 3.580E+14  Parms: SM      M1      
 Compute Stats, Diag. #     83  sIceLoad  vol(   0 ): 3.580E+14  Parms: SM      U1      
 Compute Stats, Diag. #    223  SIuice    vol(   0 ): 3.513E+14  Parms: UU      M1      
 Compute Stats, Diag. #    224  SIvice    vol(   0 ): 3.508E+14  Parms: VV      M1      
 Compute Stats, Diag. #    225  SItaux    vol(   0 ): 3.513E+14  Parms: UU      U1      
 Compute Stats, Diag. #    226  SItauy    vol(   0 ): 3.508E+14  Parms: VV      U1      
 cg2d: Sum(rhs),rhsMax =  -2.62656352317791E+01  2.86102248841786E-01
 Compute Stats, Diag. #    214  SIarea    vol(   0 ): 3.580E+14  Parms: SM      M1      
 Compute Stats, Diag. #    217  SIheff    vol(   0 ): 3.580E+14  Parms: SM      M1      
 Compute Stats, Diag. #    219  SIhsnow   vol(   0 ): 3.580E+14  Parms: SM      M1      
 Compute Stats, Diag. #     83  sIceLoad  vol(   0 ): 3.580E+14  Parms: SM      U1      
 Compute Stats, Diag. #    223  SIuice    vol(   0 ): 3.513E+14  Parms: UU      M1      
 Compute Stats, Diag. #    224  SIvice    vol(   0 ): 3.508E+14  Parms: VV      M1      
 Compute Stats, Diag. #    225  SItaux    vol(   0 ): 3.513E+14  Parms: UU      U1      
 Compute Stats, Diag. #    226  SItauy    vol(   0 ): 3.508E+14  Parms: VV      U1      
 cg2d: Sum(rhs),rhsMax =  -2.63324880359321E+01  2.86075019518403E-01
 Compute Stats, Diag. #    214  SIarea    vol(   0 ): 3.580E+14  Parms: SM      M1      
 Compute Stats, Diag. #    217  SIheff    vol(   0 ): 3.580E+14  Parms: SM      M1      
 Compute Stats, Diag. #    219  SIhsnow   vol(   0 ): 3.580E+14  Parms: SM      M1      
 Compute Stats, Diag. #     83  sIceLoad  vol(   0 ): 3.580E+14  Parms: SM      U1      
 Compute Stats, Diag. #    223  SIuice    vol(   0 ): 3.513E+14  Parms: UU      M1      
 Compute Stats, Diag. #    224  SIvice    vol(   0 ): 3.508E+14  Parms: VV      M1      
 Compute Stats, Diag. #    225  SItaux    vol(   0 ): 3.513E+14  Parms: UU      U1      
 Compute Stats, Diag. #    226  SItauy    vol(   0 ): 3.508E+14  Parms: VV      U1      
 cg2d: Sum(rhs),rhsMax =  -2.64004869749646E+01  2.86049211935597E-01
(PID.TID 0000.0001)      cg2d_init_res =   4.66124940890599E-02
(PID.TID 0000.0001)      cg2d_iters(min,last) =      -1      23
(PID.TID 0000.0001)      cg2d_last_res =   2.40403216701311E-05
(PID.TID 0000.0001) // =======================================================
(PID.TID 0000.0001) // Begin MONITOR dynamic field statistics
(PID.TID 0000.0001) // =======================================================
(PID.TID 0000.0001) %MON time_tsnumber                =                   904
(PID.TID 0000.0001) %MON time_secondsf                =   8.1360000000000E+05
(PID.TID 0000.0001) %MON dynstat_eta_max              =   1.0208550446818E+00
(PID.TID 0000.0001) %MON dynstat_eta_min              =  -1.8253466506373E+00
(PID.TID 0000.0001) %MON dynstat_eta_mean             =   8.3513172057890E-04
(PID.TID 0000.0001) %MON dynstat_eta_sd               =   6.2705773582526E-01
(PID.TID 0000.0001) %MON dynstat_eta_del2             =   5.0652343340285E-05
(PID.TID 0000.0001) %MON dynstat_uvel_max             =   6.9309057680522E-01
(PID.TID 0000.0001) %MON dynstat_uvel_min             =  -7.7959369615517E-01
(PID.TID 0000.0001) %MON dynstat_uvel_mean            =   1.2799127818732E-03
(PID.TID 0000.0001) %MON dynstat_uvel_sd              =   1.8103057150240E-02
(PID.TID 0000.0001) %MON dynstat_uvel_del2            =   7.0501624383130E-06
(PID.TID 0000.0001) %MON dynstat_vvel_max             =   5.5475574411615E-01
(PID.TID 0000.0001) %MON dynstat_vvel_min             =  -8.7739567250666E-01
(PID.TID 0000.0001) %MON dynstat_vvel_mean            =   1.0130619612653E-03
(PID.TID 0000.0001) %MON dynstat_vvel_sd              =   1.9399882171050E-02
(PID.TID 0000.0001) %MON dynstat_vvel_del2            =   7.0887698156381E-06
(PID.TID 0000.0001) %MON dynstat_wvel_max             =   2.9489609112176E-04
(PID.TID 0000.0001) %MON dynstat_wvel_min             =  -7.6361598210865E-04
(PID.TID 0000.0001) %MON dynstat_wvel_mean            =   1.3900208213882E-09
(PID.TID 0000.0001) %MON dynstat_wvel_sd              =   1.8433946447639E-05
(PID.TID 0000.0001) %MON dynstat_wvel_del2            =   1.3360503743698E-08
(PID.TID 0000.0001) %MON dynstat_theta_max            =   3.1959704322803E+01
(PID.TID 0000.0001) %MON dynstat_theta_min            =  -2.0397542939134E+00
(PID.TID 0000.0001) %MON dynstat_theta_mean           =   3.5902251543100E+00
(PID.TID 0000.0001) %MON dynstat_theta_sd             =   4.4368262439106E+00
(PID.TID 0000.0001) %MON dynstat_theta_del2           =   9.0961639641355E-05
(PID.TID 0000.0001) %MON dynstat_salt_max             =   4.0711542977606E+01
(PID.TID 0000.0001) %MON dynstat_salt_min             =   5.4661289705855E+00
(PID.TID 0000.0001) %MON dynstat_salt_mean            =   3.4725564453970E+01
(PID.TID 0000.0001) %MON dynstat_salt_sd              =   3.7708980763697E-01
(PID.TID 0000.0001) %MON dynstat_salt_del2            =   3.5552922005922E-05
(PID.TID 0000.0001) %MON dynstat_sst_max              =   3.1959704322803E+01
(PID.TID 0000.0001) %MON dynstat_sst_min              =  -1.8107169417007E+00
(PID.TID 0000.0001) %MON dynstat_sst_mean             =   1.8464770044863E+01
(PID.TID 0000.0001) %MON dynstat_sst_sd               =   1.0272302504541E+01
(PID.TID 0000.0001) %MON dynstat_sst_del2             =   7.9758914388310E-04
(PID.TID 0000.0001) %MON dynstat_sss_max              =   3.9099640273167E+01
(PID.TID 0000.0001) %MON dynstat_sss_min              =   5.4661289705855E+00
(PID.TID 0000.0001) %MON dynstat_sss_mean             =   3.4700384715345E+01
(PID.TID 0000.0001) %MON dynstat_sss_sd               =   1.1778608080495E+00
(PID.TID 0000.0001) %MON dynstat_sss_del2             =   1.0880916268216E-03
(PID.TID 0000.0001) %MON forcing_qnet_max             =   6.4309394540106E+02
(PID.TID 0000.0001) %MON forcing_qnet_min             =  -6.9071112085583E+02
(PID.TID 0000.0001) %MON forcing_qnet_mean            =   4.7000765321422E+01
(PID.TID 0000.0001) %MON forcing_qnet_sd              =   1.7007778972018E+02
(PID.TID 0000.0001) %MON forcing_qnet_del2            =   2.8755462573080E-01
(PID.TID 0000.0001) %MON forcing_qsw_max              =   0.0000000000000E+00
(PID.TID 0000.0001) %MON forcing_qsw_min              =  -1.0476286622846E+02
(PID.TID 0000.0001) %MON forcing_qsw_mean             =  -1.3981343056583E+01
(PID.TID 0000.0001) %MON forcing_qsw_sd               =   2.5555572502104E+01
(PID.TID 0000.0001) %MON forcing_qsw_del2             =   1.8920006200584E-02
(PID.TID 0000.0001) %MON forcing_empmr_max            =   9.2881947057322E-04
(PID.TID 0000.0001) %MON forcing_empmr_min            =  -5.0238654017448E-02
(PID.TID 0000.0001) %MON forcing_empmr_mean           =  -2.4593370006830E-06
(PID.TID 0000.0001) %MON forcing_empmr_sd             =   2.4000768399793E-04
(PID.TID 0000.0001) %MON forcing_empmr_del2           =   3.0580437322029E-06
(PID.TID 0000.0001) %MON forcing_fu_max               =   1.0447620153427E+00
(PID.TID 0000.0001) %MON forcing_fu_min               =  -7.6912814378738E-01
(PID.TID 0000.0001) %MON forcing_fu_mean              =  -1.7283637904686E-04
(PID.TID 0000.0001) %MON forcing_fu_sd                =   1.1062513831598E-01
(PID.TID 0000.0001) %MON forcing_fu_del2              =   1.4526234305089E-04
(PID.TID 0000.0001) %MON forcing_fv_max               =   6.8845319747924E-01
(PID.TID 0000.0001) %MON forcing_fv_min               =  -6.4781442284584E-01
(PID.TID 0000.0001) %MON forcing_fv_mean              =  -1.0607215199670E-02
(PID.TID 0000.0001) %MON forcing_fv_sd                =   1.0864046822934E-01
(PID.TID 0000.0001) %MON forcing_fv_del2              =   1.2940062724957E-04
(PID.TID 0000.0001) %MON trAdv_CFL_u_max              =   9.9314109496574E-03
(PID.TID 0000.0001) %MON trAdv_CFL_v_max              =   1.3266052038797E-02
(PID.TID 0000.0001) %MON trAdv_CFL_w_max              =   2.0207049199550E-02
(PID.TID 0000.0001) %MON advcfl_uvel_max              =   8.2782052762313E-03
(PID.TID 0000.0001) %MON advcfl_vvel_max              =   1.1150740580138E-02
(PID.TID 0000.0001) %MON advcfl_wvel_max              =   1.7249558098246E-02
(PID.TID 0000.0001) %MON advcfl_W_hf_max              =   1.8090438439624E-02
(PID.TID 0000.0001) %MON pe_b_mean                    =   5.1721845352365E-04
(PID.TID 0000.0001) %MON ke_max                       =   3.9429839299753E-01
(PID.TID 0000.0001) %MON ke_mean                      =   3.4078700425852E-04
(PID.TID 0000.0001) %MON ke_vol                       =   1.3349981751579E+18
(PID.TID 0000.0001) %MON vort_r_min                   =  -9.0627231898655E-06
(PID.TID 0000.0001) %MON vort_r_max                   =   1.3000300524543E-05
(PID.TID 0000.0001) %MON vort_a_mean                  =  -1.9727864647440E-05
(PID.TID 0000.0001) %MON vort_a_sd                    =   7.4542954624437E-05
(PID.TID 0000.0001) %MON vort_p_mean                  =  -2.1760529192639E-05
(PID.TID 0000.0001) %MON vort_p_sd                    =   9.7246412198770E-05
(PID.TID 0000.0001) %MON surfExpan_theta_mean         =   6.6594371771721E-08
(PID.TID 0000.0001) %MON surfExpan_salt_mean          =   4.7533051850417E-08
(PID.TID 0000.0001) // =======================================================
(PID.TID 0000.0001) // End MONITOR dynamic field statistics
(PID.TID 0000.0001) // =======================================================
(PID.TID 0000.0001) // =======================================================
(PID.TID 0000.0001) // Begin MONITOR SEAICE statistics
(PID.TID 0000.0001) // =======================================================
(PID.TID 0000.0001) %MON seaice_tsnumber              =                   904
(PID.TID 0000.0001) %MON seaice_time_sec              =   8.1360000000000E+05
(PID.TID 0000.0001) %MON seaice_uice_max              =   4.0000000000000E-01
(PID.TID 0000.0001) %MON seaice_uice_min              =  -4.0000000000000E-01
(PID.TID 0000.0001) %MON seaice_uice_mean             =  -8.3054598624025E-03
(PID.TID 0000.0001) %MON seaice_uice_sd               =   1.9802383574176E-01
(PID.TID 0000.0001) %MON seaice_uice_del2             =   2.2931571122150E-04
(PID.TID 0000.0001) %MON seaice_vice_max              =   4.0000000000000E-01
(PID.TID 0000.0001) %MON seaice_vice_min              =  -4.0000000000000E-01
(PID.TID 0000.0001) %MON seaice_vice_mean             =  -2.1960776359499E-02
(PID.TID 0000.0001) %MON seaice_vice_sd               =   2.1302038025672E-01
(PID.TID 0000.0001) %MON seaice_vice_del2             =   2.3932563818061E-04
(PID.TID 0000.0001) %MON seaice_area_max              =   1.0000000000000E+00
(PID.TID 0000.0001) %MON seaice_area_min              =   0.0000000000000E+00
(PID.TID 0000.0001) %MON seaice_area_mean             =   6.5261132336375E-02
(PID.TID 0000.0001) %MON seaice_area_sd               =   2.2878902321109E-01
(PID.TID 0000.0001) %MON seaice_area_del2             =   3.8406678791610E-04
(PID.TID 0000.0001) %MON seaice_heff_max              =   2.4965137605206E+01
(PID.TID 0000.0001) %MON seaice_heff_min              =   0.0000000000000E+00
(PID.TID 0000.0001) %MON seaice_heff_mean             =   2.1205995547553E-01
(PID.TID 0000.0001) %MON seaice_heff_sd               =   1.0660624915196E+00
(PID.TID 0000.0001) %MON seaice_heff_del2             =   3.8294419765291E-03
(PID.TID 0000.0001) %MON seaice_hsnow_max             =   8.2459426335699E+00
(PID.TID 0000.0001) %MON seaice_hsnow_min             =   0.0000000000000E+00
(PID.TID 0000.0001) %MON seaice_hsnow_mean            =   2.3919428007047E-02
(PID.TID 0000.0001) %MON seaice_hsnow_sd              =   1.5594478559476E-01
(PID.TID 0000.0001) %MON seaice_hsnow_del2            =   1.2373220841609E-03
(PID.TID 0000.0001) // =======================================================
(PID.TID 0000.0001) // End MONITOR SEAICE statistics
(PID.TID 0000.0001) // =======================================================
 Computing Diagnostic #     86  oceQnet      Counter:       4   Parms: SM      U1      
 Computing Diagnostic #     87  oceQsw       Counter:       4   Parms: SM      U1      
 Computing Diagnostic #     84  oceFWflx     Counter:       4   Parms: SM      U1      
 Computing Diagnostic #     85  oceSflux     Counter:       4   Parms: SM      U1      
 Computing Diagnostic #     80  oceTAUX      Counter:       4   Parms: UU      U1      
           Vector  Mate for  oceTAUX      Diagnostic #     81  oceTAUY  exists 
 Computing Diagnostic #     81  oceTAUY      Counter:       4   Parms: VV      U1      
           Vector  Mate for  oceTAUY      Diagnostic #     80  oceTAUX  exists 
 Computing Diagnostic #     26  THETA        Counter:       4   Parms: SMR     MR      
 Computing Diagnostic #     27  SALT         Counter:       4   Parms: SMR     MR      
 Computing Diagnostic #     30  UVEL         Counter:       4   Parms: UUR     MR      
           Vector  Mate for  UVEL         Diagnostic #     31  VVEL     exists 
 Computing Diagnostic #     31  VVEL         Counter:       4   Parms: VVR     MR      
           Vector  Mate for  VVEL         Diagnostic #     30  UVEL     exists 
 Computing Diagnostic #    214  SIarea       Counter:       4   Parms: SM      M1      
 Computing Diagnostic #    217  SIheff       Counter:       4   Parms: SM      M1      
 Computing Diagnostic #    219  SIhsnow      Counter:       4   Parms: SM      M1      
 Computing Diagnostic #     83  sIceLoad     Counter:       4   Parms: SM      U1      
 Computing Diagnostic #    223  SIuice       Counter:       4   Parms: UU      M1      
           Vector  Mate for  SIuice       Diagnostic #    224  SIvice   exists 
 Computing Diagnostic #    224  SIvice       Counter:       4   Parms: VV      M1      
           Vector  Mate for  SIvice       Diagnostic #    223  SIuice   exists 
 Computing Diagnostic #    225  SItaux       Counter:       4   Parms: UU      U1      
           Vector  Mate for  SItaux       Diagnostic #    226  SItauy   exists 
 Computing Diagnostic #    226  SItauy       Counter:       4   Parms: VV      U1      
           Vector  Mate for  SItauy       Diagnostic #    225  SItaux   exists 
 Computing Diagnostic #    285  SIareaN      Counter:       4   Parms: SM      MX      
 Computing Diagnostic #    284  SIheffN      Counter:       4   Parms: SM      MX      
 Computing Diagnostic #    286  SIhsnowN     Counter:       4   Parms: SM      MX      
 Compute Stats, Diag. #    214  SIarea    vol(   0 ): 3.580E+14  Parms: SM      M1      
 Compute Stats, Diag. #    217  SIheff    vol(   0 ): 3.580E+14  Parms: SM      M1      
 Compute Stats, Diag. #    219  SIhsnow   vol(   0 ): 3.580E+14  Parms: SM      M1      
 Compute Stats, Diag. #     83  sIceLoad  vol(   0 ): 3.580E+14  Parms: SM      U1      
 Compute Stats, Diag. #    223  SIuice    vol(   0 ): 3.513E+14  Parms: UU      M1      
 Compute Stats, Diag. #    224  SIvice    vol(   0 ): 3.508E+14  Parms: VV      M1      
 Compute Stats, Diag. #    225  SItaux    vol(   0 ): 3.513E+14  Parms: UU      U1      
 Compute Stats, Diag. #    226  SItauy    vol(   0 ): 3.508E+14  Parms: VV      U1      
 cg2d: Sum(rhs),rhsMax =  -2.64675682455182E+01  2.86023959613879E-01
 Compute Stats, Diag. #    214  SIarea    vol(   0 ): 3.580E+14  Parms: SM      M1      
 Compute Stats, Diag. #    217  SIheff    vol(   0 ): 3.580E+14  Parms: SM      M1      
 Compute Stats, Diag. #    219  SIhsnow   vol(   0 ): 3.580E+14  Parms: SM      M1      
 Compute Stats, Diag. #     83  sIceLoad  vol(   0 ): 3.580E+14  Parms: SM      U1      
 Compute Stats, Diag. #    223  SIuice    vol(   0 ): 3.513E+14  Parms: UU      M1      
 Compute Stats, Diag. #    224  SIvice    vol(   0 ): 3.508E+14  Parms: VV      M1      
 Compute Stats, Diag. #    225  SItaux    vol(   0 ): 3.513E+14  Parms: UU      U1      
 Compute Stats, Diag. #    226  SItauy    vol(   0 ): 3.508E+14  Parms: VV      U1      
 cg2d: Sum(rhs),rhsMax =  -2.65359835997388E+01  2.85998916746662E-01
 Compute Stats, Diag. #    214  SIarea    vol(   0 ): 3.580E+14  Parms: SM      M1      
 Compute Stats, Diag. #    217  SIheff    vol(   0 ): 3.580E+14  Parms: SM      M1      
 Compute Stats, Diag. #    219  SIhsnow   vol(   0 ): 3.580E+14  Parms: SM      M1      
 Compute Stats, Diag. #     83  sIceLoad  vol(   0 ): 3.580E+14  Parms: SM      U1      
 Compute Stats, Diag. #    223  SIuice    vol(   0 ): 3.513E+14  Parms: UU      M1      
 Compute Stats, Diag. #    224  SIvice    vol(   0 ): 3.508E+14  Parms: VV      M1      
 Compute Stats, Diag. #    225  SItaux    vol(   0 ): 3.513E+14  Parms: UU      U1      
 Compute Stats, Diag. #    226  SItauy    vol(   0 ): 3.508E+14  Parms: VV      U1      
 cg2d: Sum(rhs),rhsMax =  -2.66166644418248E+01  2.85973657867068E-01
 Compute Stats, Diag. #    214  SIarea    vol(   0 ): 3.580E+14  Parms: SM      M1      
 Compute Stats, Diag. #    217  SIheff    vol(   0 ): 3.580E+14  Parms: SM      M1      
 Compute Stats, Diag. #    219  SIhsnow   vol(   0 ): 3.580E+14  Parms: SM      M1      
 Compute Stats, Diag. #     83  sIceLoad  vol(   0 ): 3.580E+14  Parms: SM      U1      
 Compute Stats, Diag. #    223  SIuice    vol(   0 ): 3.513E+14  Parms: UU      M1      
 Compute Stats, Diag. #    224  SIvice    vol(   0 ): 3.508E+14  Parms: VV      M1      
 Compute Stats, Diag. #    225  SItaux    vol(   0 ): 3.513E+14  Parms: UU      U1      
 Compute Stats, Diag. #    226  SItauy    vol(   0 ): 3.508E+14  Parms: VV      U1      
 cg2d: Sum(rhs),rhsMax =  -2.66891731398915E+01  2.85947624595677E-01
 Computing Diagnostic #     86  oceQnet      Counter:       4   Parms: SM      U1      
 Computing Diagnostic #     87  oceQsw       Counter:       4   Parms: SM      U1      
 Computing Diagnostic #     84  oceFWflx     Counter:       4   Parms: SM      U1      
 Computing Diagnostic #     85  oceSflux     Counter:       4   Parms: SM      U1      
 Computing Diagnostic #     80  oceTAUX      Counter:       4   Parms: UU      U1      
           Vector  Mate for  oceTAUX      Diagnostic #     81  oceTAUY  exists 
 Computing Diagnostic #     81  oceTAUY      Counter:       4   Parms: VV      U1      
           Vector  Mate for  oceTAUY      Diagnostic #     80  oceTAUX  exists 
 Computing Diagnostic #     26  THETA        Counter:       4   Parms: SMR     MR      
 Computing Diagnostic #     27  SALT         Counter:       4   Parms: SMR     MR      
 Computing Diagnostic #     30  UVEL         Counter:       4   Parms: UUR     MR      
           Vector  Mate for  UVEL         Diagnostic #     31  VVEL     exists 
 Computing Diagnostic #     31  VVEL         Counter:       4   Parms: VVR     MR      
           Vector  Mate for  VVEL         Diagnostic #     30  UVEL     exists 
 Computing Diagnostic #    214  SIarea       Counter:       4   Parms: SM      M1      
 Computing Diagnostic #    217  SIheff       Counter:       4   Parms: SM      M1      
 Computing Diagnostic #    219  SIhsnow      Counter:       4   Parms: SM      M1      
 Computing Diagnostic #     83  sIceLoad     Counter:       4   Parms: SM      U1      
 Computing Diagnostic #    223  SIuice       Counter:       4   Parms: UU      M1      
           Vector  Mate for  SIuice       Diagnostic #    224  SIvice   exists 
 Computing Diagnostic #    224  SIvice       Counter:       4   Parms: VV      M1      
           Vector  Mate for  SIvice       Diagnostic #    223  SIuice   exists 
 Computing Diagnostic #    225  SItaux       Counter:       4   Parms: UU      U1      
           Vector  Mate for  SItaux       Diagnostic #    226  SItauy   exists 
 Computing Diagnostic #    226  SItauy       Counter:       4   Parms: VV      U1      
           Vector  Mate for  SItauy       Diagnostic #    225  SItaux   exists 
 Computing Diagnostic #    285  SIareaN      Counter:       4   Parms: SM      MX      
 Computing Diagnostic #    284  SIheffN      Counter:       4   Parms: SM      MX      
 Computing Diagnostic #    286  SIhsnowN     Counter:       4   Parms: SM      MX      
 Compute Stats, Diag. #    214  SIarea    vol(   0 ): 3.580E+14  Parms: SM      M1      
 Compute Stats, Diag. #    217  SIheff    vol(   0 ): 3.580E+14  Parms: SM      M1      
 Compute Stats, Diag. #    219  SIhsnow   vol(   0 ): 3.580E+14  Parms: SM      M1      
 Compute Stats, Diag. #     83  sIceLoad  vol(   0 ): 3.580E+14  Parms: SM      U1      
 Compute Stats, Diag. #    223  SIuice    vol(   0 ): 3.513E+14  Parms: UU      M1      
 Compute Stats, Diag. #    224  SIvice    vol(   0 ): 3.508E+14  Parms: VV      M1      
 Compute Stats, Diag. #    225  SItaux    vol(   0 ): 3.513E+14  Parms: UU      U1      
 Compute Stats, Diag. #    226  SItauy    vol(   0 ): 3.508E+14  Parms: VV      U1      
 cg2d: Sum(rhs),rhsMax =  -2.67682628054741E+01  2.85920684635112E-01
 Compute Stats, Diag. #    214  SIarea    vol(   0 ): 3.580E+14  Parms: SM      M1      
 Compute Stats, Diag. #    217  SIheff    vol(   0 ): 3.580E+14  Parms: SM      M1      
 Compute Stats, Diag. #    219  SIhsnow   vol(   0 ): 3.580E+14  Parms: SM      M1      
 Compute Stats, Diag. #     83  sIceLoad  vol(   0 ): 3.580E+14  Parms: SM      U1      
 Compute Stats, Diag. #    223  SIuice    vol(   0 ): 3.513E+14  Parms: UU      M1      
 Compute Stats, Diag. #    224  SIvice    vol(   0 ): 3.508E+14  Parms: VV      M1      
 Compute Stats, Diag. #    225  SItaux    vol(   0 ): 3.513E+14  Parms: UU      U1      
 Compute Stats, Diag. #    226  SItauy    vol(   0 ): 3.508E+14  Parms: VV      U1      
 cg2d: Sum(rhs),rhsMax =  -2.68406486948846E+01  2.85891656430007E-01
 Compute Stats, Diag. #    214  SIarea    vol(   0 ): 3.580E+14  Parms: SM      M1      
 Compute Stats, Diag. #    217  SIheff    vol(   0 ): 3.580E+14  Parms: SM      M1      
 Compute Stats, Diag. #    219  SIhsnow   vol(   0 ): 3.580E+14  Parms: SM      M1      
 Compute Stats, Diag. #     83  sIceLoad  vol(   0 ): 3.580E+14  Parms: SM      U1      
 Compute Stats, Diag. #    223  SIuice    vol(   0 ): 3.513E+14  Parms: UU      M1      
 Compute Stats, Diag. #    224  SIvice    vol(   0 ): 3.508E+14  Parms: VV      M1      
 Compute Stats, Diag. #    225  SItaux    vol(   0 ): 3.513E+14  Parms: UU      U1      
 Compute Stats, Diag. #    226  SItauy    vol(   0 ): 3.508E+14  Parms: VV      U1      
 cg2d: Sum(rhs),rhsMax =  -2.69235256016828E+01  2.85861144195261E-01
 Compute Stats, Diag. #    214  SIarea    vol(   0 ): 3.580E+14  Parms: SM      M1      
 Compute Stats, Diag. #    217  SIheff    vol(   0 ): 3.580E+14  Parms: SM      M1      
 Compute Stats, Diag. #    219  SIhsnow   vol(   0 ): 3.580E+14  Parms: SM      M1      
 Compute Stats, Diag. #     83  sIceLoad  vol(   0 ): 3.580E+14  Parms: SM      U1      
 Compute Stats, Diag. #    223  SIuice    vol(   0 ): 3.513E+14  Parms: UU      M1      
 Compute Stats, Diag. #    224  SIvice    vol(   0 ): 3.508E+14  Parms: VV      M1      
 Compute Stats, Diag. #    225  SItaux    vol(   0 ): 3.513E+14  Parms: UU      U1      
 Compute Stats, Diag. #    226  SItauy    vol(   0 ): 3.508E+14  Parms: VV      U1      
 cg2d: Sum(rhs),rhsMax =  -2.70082870396192E+01  2.85828298194175E-01
(PID.TID 0000.0001)      cg2d_init_res =   4.56559021210675E-02
(PID.TID 0000.0001)      cg2d_iters(min,last) =      -1      24
(PID.TID 0000.0001)      cg2d_last_res =   2.37451584324734E-05
(PID.TID 0000.0001) // =======================================================
(PID.TID 0000.0001) // Begin MONITOR dynamic field statistics
(PID.TID 0000.0001) // =======================================================
(PID.TID 0000.0001) %MON time_tsnumber                =                   912
(PID.TID 0000.0001) %MON time_secondsf                =   8.2080000000000E+05
(PID.TID 0000.0001) %MON dynstat_eta_max              =   1.0193436416631E+00
(PID.TID 0000.0001) %MON dynstat_eta_min              =  -1.8231402428286E+00
(PID.TID 0000.0001) %MON dynstat_eta_mean             =   8.5435837780869E-04
(PID.TID 0000.0001) %MON dynstat_eta_sd               =   6.2659660763199E-01
(PID.TID 0000.0001) %MON dynstat_eta_del2             =   5.0604954060788E-05
(PID.TID 0000.0001) %MON dynstat_uvel_max             =   6.9334102123814E-01
(PID.TID 0000.0001) %MON dynstat_uvel_min             =  -7.8376802070954E-01
(PID.TID 0000.0001) %MON dynstat_uvel_mean            =   1.2715163597031E-03
(PID.TID 0000.0001) %MON dynstat_uvel_sd              =   1.8081396956321E-02
(PID.TID 0000.0001) %MON dynstat_uvel_del2            =   7.0464916598100E-06
(PID.TID 0000.0001) %MON dynstat_vvel_max             =   5.5329021193986E-01
(PID.TID 0000.0001) %MON dynstat_vvel_min             =  -8.8051131861758E-01
(PID.TID 0000.0001) %MON dynstat_vvel_mean            =   1.0020600317661E-03
(PID.TID 0000.0001) %MON dynstat_vvel_sd              =   1.9395624486749E-02
(PID.TID 0000.0001) %MON dynstat_vvel_del2            =   7.1013728227687E-06
(PID.TID 0000.0001) %MON dynstat_wvel_max             =   2.9499594479707E-04
(PID.TID 0000.0001) %MON dynstat_wvel_min             =  -7.6185235484028E-04
(PID.TID 0000.0001) %MON dynstat_wvel_mean            =   5.9930157784996E-10
(PID.TID 0000.0001) %MON dynstat_wvel_sd              =   1.8380987820856E-05
(PID.TID 0000.0001) %MON dynstat_wvel_del2            =   1.3427600311692E-08
(PID.TID 0000.0001) %MON dynstat_theta_max            =   3.1940356310869E+01
(PID.TID 0000.0001) %MON dynstat_theta_min            =  -2.0397487266861E+00
(PID.TID 0000.0001) %MON dynstat_theta_mean           =   3.5902028391311E+00
(PID.TID 0000.0001) %MON dynstat_theta_sd             =   4.4367568797004E+00
(PID.TID 0000.0001) %MON dynstat_theta_del2           =   9.0938536283525E-05
(PID.TID 0000.0001) %MON dynstat_salt_max             =   4.0711542671624E+01
(PID.TID 0000.0001) %MON dynstat_salt_min             =   5.5835127342481E+00
(PID.TID 0000.0001) %MON dynstat_salt_mean            =   3.4725564278469E+01
(PID.TID 0000.0001) %MON dynstat_salt_sd              =   3.7709058600585E-01
(PID.TID 0000.0001) %MON dynstat_salt_del2            =   3.5541314515250E-05
(PID.TID 0000.0001) %MON dynstat_sst_max              =   3.1940356310869E+01
(PID.TID 0000.0001) %MON dynstat_sst_min              =  -1.8099013769680E+00
(PID.TID 0000.0001) %MON dynstat_sst_mean             =   1.8459138961187E+01
(PID.TID 0000.0001) %MON dynstat_sst_sd               =   1.0272376404995E+01
(PID.TID 0000.0001) %MON dynstat_sst_del2             =   7.9696889876515E-04
(PID.TID 0000.0001) %MON dynstat_sss_max              =   3.9099505873212E+01
(PID.TID 0000.0001) %MON dynstat_sss_min              =   5.5835127342481E+00
(PID.TID 0000.0001) %MON dynstat_sss_mean             =   3.4700416236537E+01
(PID.TID 0000.0001) %MON dynstat_sss_sd               =   1.1781186125412E+00
(PID.TID 0000.0001) %MON dynstat_sss_del2             =   1.0880610306145E-03
(PID.TID 0000.0001) %MON forcing_qnet_max             =   7.2122620804075E+02
(PID.TID 0000.0001) %MON forcing_qnet_min             =  -7.1740995758102E+02
(PID.TID 0000.0001) %MON forcing_qnet_mean            =   4.5150163124821E+01
(PID.TID 0000.0001) %MON forcing_qnet_sd              =   1.6720112679090E+02
(PID.TID 0000.0001) %MON forcing_qnet_del2            =   2.9198776057356E-01
(PID.TID 0000.0001) %MON forcing_qsw_max              =   0.0000000000000E+00
(PID.TID 0000.0001) %MON forcing_qsw_min              =  -1.1039399247619E+02
(PID.TID 0000.0001) %MON forcing_qsw_mean             =  -1.3152712036195E+01
(PID.TID 0000.0001) %MON forcing_qsw_sd               =   2.4116564943379E+01
(PID.TID 0000.0001) %MON forcing_qsw_del2             =   1.8962904473466E-02
(PID.TID 0000.0001) %MON forcing_empmr_max            =   7.7080621849746E-04
(PID.TID 0000.0001) %MON forcing_empmr_min            =  -3.9040178060532E-02
(PID.TID 0000.0001) %MON forcing_empmr_mean           =  -3.0655910742302E-06
(PID.TID 0000.0001) %MON forcing_empmr_sd             =   2.0144603188945E-04
(PID.TID 0000.0001) %MON forcing_empmr_del2           =   2.2282331394067E-06
(PID.TID 0000.0001) %MON forcing_fu_max               =   1.0988439321518E+00
(PID.TID 0000.0001) %MON forcing_fu_min               =  -8.2961508631707E-01
(PID.TID 0000.0001) %MON forcing_fu_mean              =  -3.2237693243188E-04
(PID.TID 0000.0001) %MON forcing_fu_sd                =   1.1121156732443E-01
(PID.TID 0000.0001) %MON forcing_fu_del2              =   1.4902057215865E-04
(PID.TID 0000.0001) %MON forcing_fv_max               =   7.6071968674659E-01
(PID.TID 0000.0001) %MON forcing_fv_min               =  -6.5696363334422E-01
(PID.TID 0000.0001) %MON forcing_fv_mean              =  -1.0510333095064E-02
(PID.TID 0000.0001) %MON forcing_fv_sd                =   1.1054147185978E-01
(PID.TID 0000.0001) %MON forcing_fv_del2              =   1.3376696168398E-04
(PID.TID 0000.0001) %MON trAdv_CFL_u_max              =   1.0029258469441E-02
(PID.TID 0000.0001) %MON trAdv_CFL_v_max              =   1.3441626321595E-02
(PID.TID 0000.0001) %MON trAdv_CFL_w_max              =   2.0153650044931E-02
(PID.TID 0000.0001) %MON advcfl_uvel_max              =   8.3744288208355E-03
(PID.TID 0000.0001) %MON advcfl_vvel_max              =   1.1121282986805E-02
(PID.TID 0000.0001) %MON advcfl_wvel_max              =   1.7371434680078E-02
(PID.TID 0000.0001) %MON advcfl_W_hf_max              =   1.8218260642456E-02
(PID.TID 0000.0001) %MON pe_b_mean                    =   5.1645806642137E-04
(PID.TID 0000.0001) %MON ke_max                       =   3.9877195373695E-01
(PID.TID 0000.0001) %MON ke_mean                      =   3.4030845492590E-04
(PID.TID 0000.0001) %MON ke_vol                       =   1.3349981818515E+18
(PID.TID 0000.0001) %MON vort_r_min                   =  -8.8713832060942E-06
(PID.TID 0000.0001) %MON vort_r_max                   =   1.2751481183463E-05
(PID.TID 0000.0001) %MON vort_a_mean                  =  -1.9727864647440E-05
(PID.TID 0000.0001) %MON vort_a_sd                    =   7.4542951179929E-05
(PID.TID 0000.0001) %MON vort_p_mean                  =  -2.1760529103138E-05
(PID.TID 0000.0001) %MON vort_p_sd                    =   9.7246355845496E-05
(PID.TID 0000.0001) %MON surfExpan_theta_mean         =   2.3615435374774E-08
(PID.TID 0000.0001) %MON surfExpan_salt_mean          =   4.7615283644627E-08
(PID.TID 0000.0001) // =======================================================
(PID.TID 0000.0001) // End MONITOR dynamic field statistics
(PID.TID 0000.0001) // =======================================================
(PID.TID 0000.0001) // =======================================================
(PID.TID 0000.0001) // Begin MONITOR SEAICE statistics
(PID.TID 0000.0001) // =======================================================
(PID.TID 0000.0001) %MON seaice_tsnumber              =                   912
(PID.TID 0000.0001) %MON seaice_time_sec              =   8.2080000000000E+05
(PID.TID 0000.0001) %MON seaice_uice_max              =   4.0000000000000E-01
(PID.TID 0000.0001) %MON seaice_uice_min              =  -4.0000000000000E-01
(PID.TID 0000.0001) %MON seaice_uice_mean             =  -8.3054598624025E-03
(PID.TID 0000.0001) %MON seaice_uice_sd               =   1.9802383574176E-01
(PID.TID 0000.0001) %MON seaice_uice_del2             =   2.2931571122150E-04
(PID.TID 0000.0001) %MON seaice_vice_max              =   4.0000000000000E-01
(PID.TID 0000.0001) %MON seaice_vice_min              =  -4.0000000000000E-01
(PID.TID 0000.0001) %MON seaice_vice_mean             =  -2.1960776359499E-02
(PID.TID 0000.0001) %MON seaice_vice_sd               =   2.1302038025672E-01
(PID.TID 0000.0001) %MON seaice_vice_del2             =   2.3932563818061E-04
(PID.TID 0000.0001) %MON seaice_area_max              =   9.9999999813735E-01
(PID.TID 0000.0001) %MON seaice_area_min              =   0.0000000000000E+00
(PID.TID 0000.0001) %MON seaice_area_mean             =   6.5240476909121E-02
(PID.TID 0000.0001) %MON seaice_area_sd               =   2.2875413714973E-01
(PID.TID 0000.0001) %MON seaice_area_del2             =   3.8372025600943E-04
(PID.TID 0000.0001) %MON seaice_heff_max              =   2.4963327642879E+01
(PID.TID 0000.0001) %MON seaice_heff_min              =   0.0000000000000E+00
(PID.TID 0000.0001) %MON seaice_heff_mean             =   2.1203529762165E-01
(PID.TID 0000.0001) %MON seaice_heff_sd               =   1.0660387383298E+00
(PID.TID 0000.0001) %MON seaice_heff_del2             =   3.8287968761338E-03
(PID.TID 0000.0001) %MON seaice_hsnow_max             =   8.2453447488951E+00
(PID.TID 0000.0001) %MON seaice_hsnow_min             =   0.0000000000000E+00
(PID.TID 0000.0001) %MON seaice_hsnow_mean            =   2.3918926546983E-02
(PID.TID 0000.0001) %MON seaice_hsnow_sd              =   1.5593788955549E-01
(PID.TID 0000.0001) %MON seaice_hsnow_del2            =   1.2371963552348E-03
(PID.TID 0000.0001) // =======================================================
(PID.TID 0000.0001) // End MONITOR SEAICE statistics
(PID.TID 0000.0001) // =======================================================
 Computing Diagnostic #     86  oceQnet      Counter:       4   Parms: SM      U1      
 Computing Diagnostic #     87  oceQsw       Counter:       4   Parms: SM      U1      
 Computing Diagnostic #     84  oceFWflx     Counter:       4   Parms: SM      U1      
 Computing Diagnostic #     85  oceSflux     Counter:       4   Parms: SM      U1      
 Computing Diagnostic #     80  oceTAUX      Counter:       4   Parms: UU      U1      
           Vector  Mate for  oceTAUX      Diagnostic #     81  oceTAUY  exists 
 Computing Diagnostic #     81  oceTAUY      Counter:       4   Parms: VV      U1      
           Vector  Mate for  oceTAUY      Diagnostic #     80  oceTAUX  exists 
 Computing Diagnostic #     26  THETA        Counter:       4   Parms: SMR     MR      
 Computing Diagnostic #     27  SALT         Counter:       4   Parms: SMR     MR      
 Computing Diagnostic #     30  UVEL         Counter:       4   Parms: UUR     MR      
           Vector  Mate for  UVEL         Diagnostic #     31  VVEL     exists 
 Computing Diagnostic #     31  VVEL         Counter:       4   Parms: VVR     MR      
           Vector  Mate for  VVEL         Diagnostic #     30  UVEL     exists 
 Computing Diagnostic #    214  SIarea       Counter:       4   Parms: SM      M1      
 Computing Diagnostic #    217  SIheff       Counter:       4   Parms: SM      M1      
 Computing Diagnostic #    219  SIhsnow      Counter:       4   Parms: SM      M1      
 Computing Diagnostic #     83  sIceLoad     Counter:       4   Parms: SM      U1      
 Computing Diagnostic #    223  SIuice       Counter:       4   Parms: UU      M1      
           Vector  Mate for  SIuice       Diagnostic #    224  SIvice   exists 
 Computing Diagnostic #    224  SIvice       Counter:       4   Parms: VV      M1      
           Vector  Mate for  SIvice       Diagnostic #    223  SIuice   exists 
 Computing Diagnostic #    225  SItaux       Counter:       4   Parms: UU      U1      
           Vector  Mate for  SItaux       Diagnostic #    226  SItauy   exists 
 Computing Diagnostic #    226  SItauy       Counter:       4   Parms: VV      U1      
           Vector  Mate for  SItauy       Diagnostic #    225  SItaux   exists 
 Computing Diagnostic #    285  SIareaN      Counter:       4   Parms: SM      MX      
 Computing Diagnostic #    284  SIheffN      Counter:       4   Parms: SM      MX      
 Computing Diagnostic #    286  SIhsnowN     Counter:       4   Parms: SM      MX      
 Compute Stats, Diag. #    214  SIarea    vol(   0 ): 3.580E+14  Parms: SM      M1      
 Compute Stats, Diag. #    217  SIheff    vol(   0 ): 3.580E+14  Parms: SM      M1      
 Compute Stats, Diag. #    219  SIhsnow   vol(   0 ): 3.580E+14  Parms: SM      M1      
 Compute Stats, Diag. #     83  sIceLoad  vol(   0 ): 3.580E+14  Parms: SM      U1      
 Compute Stats, Diag. #    223  SIuice    vol(   0 ): 3.513E+14  Parms: UU      M1      
 Compute Stats, Diag. #    224  SIvice    vol(   0 ): 3.508E+14  Parms: VV      M1      
 Compute Stats, Diag. #    225  SItaux    vol(   0 ): 3.513E+14  Parms: UU      U1      
 Compute Stats, Diag. #    226  SItauy    vol(   0 ): 3.508E+14  Parms: VV      U1      
 cg2d: Sum(rhs),rhsMax =  -2.70852992846290E+01  2.85793223676534E-01
 Compute Stats, Diag. #    214  SIarea    vol(   0 ): 3.580E+14  Parms: SM      M1      
 Compute Stats, Diag. #    217  SIheff    vol(   0 ): 3.580E+14  Parms: SM      M1      
 Compute Stats, Diag. #    219  SIhsnow   vol(   0 ): 3.580E+14  Parms: SM      M1      
 Compute Stats, Diag. #     83  sIceLoad  vol(   0 ): 3.580E+14  Parms: SM      U1      
 Compute Stats, Diag. #    223  SIuice    vol(   0 ): 3.513E+14  Parms: UU      M1      
 Compute Stats, Diag. #    224  SIvice    vol(   0 ): 3.508E+14  Parms: VV      M1      
 Compute Stats, Diag. #    225  SItaux    vol(   0 ): 3.513E+14  Parms: UU      U1      
 Compute Stats, Diag. #    226  SItauy    vol(   0 ): 3.508E+14  Parms: VV      U1      
 cg2d: Sum(rhs),rhsMax =  -2.71646157955933E+01  2.85755530815413E-01
 Compute Stats, Diag. #    214  SIarea    vol(   0 ): 3.580E+14  Parms: SM      M1      
 Compute Stats, Diag. #    217  SIheff    vol(   0 ): 3.580E+14  Parms: SM      M1      
 Compute Stats, Diag. #    219  SIhsnow   vol(   0 ): 3.580E+14  Parms: SM      M1      
 Compute Stats, Diag. #     83  sIceLoad  vol(   0 ): 3.580E+14  Parms: SM      U1      
 Compute Stats, Diag. #    223  SIuice    vol(   0 ): 3.513E+14  Parms: UU      M1      
 Compute Stats, Diag. #    224  SIvice    vol(   0 ): 3.508E+14  Parms: VV      M1      
 Compute Stats, Diag. #    225  SItaux    vol(   0 ): 3.513E+14  Parms: UU      U1      
 Compute Stats, Diag. #    226  SItauy    vol(   0 ): 3.508E+14  Parms: VV      U1      
 cg2d: Sum(rhs),rhsMax =  -2.72551773585925E+01  2.85715182464888E-01
 Compute Stats, Diag. #    214  SIarea    vol(   0 ): 3.580E+14  Parms: SM      M1      
 Compute Stats, Diag. #    217  SIheff    vol(   0 ): 3.580E+14  Parms: SM      M1      
 Compute Stats, Diag. #    219  SIhsnow   vol(   0 ): 3.580E+14  Parms: SM      M1      
 Compute Stats, Diag. #     83  sIceLoad  vol(   0 ): 3.580E+14  Parms: SM      U1      
 Compute Stats, Diag. #    223  SIuice    vol(   0 ): 3.513E+14  Parms: UU      M1      
 Compute Stats, Diag. #    224  SIvice    vol(   0 ): 3.508E+14  Parms: VV      M1      
 Compute Stats, Diag. #    225  SItaux    vol(   0 ): 3.513E+14  Parms: UU      U1      
 Compute Stats, Diag. #    226  SItauy    vol(   0 ): 3.508E+14  Parms: VV      U1      
 cg2d: Sum(rhs),rhsMax =  -2.73498627549503E+01  2.85672010051842E-01
 Computing Diagnostic #     86  oceQnet      Counter:       4   Parms: SM      U1      
 Computing Diagnostic #     87  oceQsw       Counter:       4   Parms: SM      U1      
 Computing Diagnostic #     84  oceFWflx     Counter:       4   Parms: SM      U1      
 Computing Diagnostic #     85  oceSflux     Counter:       4   Parms: SM      U1      
 Computing Diagnostic #     80  oceTAUX      Counter:       4   Parms: UU      U1      
           Vector  Mate for  oceTAUX      Diagnostic #     81  oceTAUY  exists 
 Computing Diagnostic #     81  oceTAUY      Counter:       4   Parms: VV      U1      
           Vector  Mate for  oceTAUY      Diagnostic #     80  oceTAUX  exists 
 Computing Diagnostic #     26  THETA        Counter:       4   Parms: SMR     MR      
 Computing Diagnostic #     27  SALT         Counter:       4   Parms: SMR     MR      
 Computing Diagnostic #     30  UVEL         Counter:       4   Parms: UUR     MR      
           Vector  Mate for  UVEL         Diagnostic #     31  VVEL     exists 
 Computing Diagnostic #     31  VVEL         Counter:       4   Parms: VVR     MR      
           Vector  Mate for  VVEL         Diagnostic #     30  UVEL     exists 
 Computing Diagnostic #    214  SIarea       Counter:       4   Parms: SM      M1      
 Computing Diagnostic #    217  SIheff       Counter:       4   Parms: SM      M1      
 Computing Diagnostic #    219  SIhsnow      Counter:       4   Parms: SM      M1      
 Computing Diagnostic #     83  sIceLoad     Counter:       4   Parms: SM      U1      
 Computing Diagnostic #    223  SIuice       Counter:       4   Parms: UU      M1      
           Vector  Mate for  SIuice       Diagnostic #    224  SIvice   exists 
 Computing Diagnostic #    224  SIvice       Counter:       4   Parms: VV      M1      
           Vector  Mate for  SIvice       Diagnostic #    223  SIuice   exists 
 Computing Diagnostic #    225  SItaux       Counter:       4   Parms: UU      U1      
           Vector  Mate for  SItaux       Diagnostic #    226  SItauy   exists 
 Computing Diagnostic #    226  SItauy       Counter:       4   Parms: VV      U1      
           Vector  Mate for  SItauy       Diagnostic #    225  SItaux   exists 
 Computing Diagnostic #    285  SIareaN      Counter:       4   Parms: SM      MX      
 Computing Diagnostic #    284  SIheffN      Counter:       4   Parms: SM      MX      
 Computing Diagnostic #    286  SIhsnowN     Counter:       4   Parms: SM      MX      
 Compute Stats, Diag. #    214  SIarea    vol(   0 ): 3.580E+14  Parms: SM      M1      
 Compute Stats, Diag. #    217  SIheff    vol(   0 ): 3.580E+14  Parms: SM      M1      
 Compute Stats, Diag. #    219  SIhsnow   vol(   0 ): 3.580E+14  Parms: SM      M1      
 Compute Stats, Diag. #     83  sIceLoad  vol(   0 ): 3.580E+14  Parms: SM      U1      
 Compute Stats, Diag. #    223  SIuice    vol(   0 ): 3.513E+14  Parms: UU      M1      
 Compute Stats, Diag. #    224  SIvice    vol(   0 ): 3.508E+14  Parms: VV      M1      
 Compute Stats, Diag. #    225  SItaux    vol(   0 ): 3.513E+14  Parms: UU      U1      
 Compute Stats, Diag. #    226  SItauy    vol(   0 ): 3.508E+14  Parms: VV      U1      
 cg2d: Sum(rhs),rhsMax =  -2.74365530489077E+01  2.85626258207566E-01
 Compute Stats, Diag. #    214  SIarea    vol(   0 ): 3.580E+14  Parms: SM      M1      
 Compute Stats, Diag. #    217  SIheff    vol(   0 ): 3.580E+14  Parms: SM      M1      
 Compute Stats, Diag. #    219  SIhsnow   vol(   0 ): 3.580E+14  Parms: SM      M1      
 Compute Stats, Diag. #     83  sIceLoad  vol(   0 ): 3.580E+14  Parms: SM      U1      
 Compute Stats, Diag. #    223  SIuice    vol(   0 ): 3.513E+14  Parms: UU      M1      
 Compute Stats, Diag. #    224  SIvice    vol(   0 ): 3.508E+14  Parms: VV      M1      
 Compute Stats, Diag. #    225  SItaux    vol(   0 ): 3.513E+14  Parms: UU      U1      
 Compute Stats, Diag. #    226  SItauy    vol(   0 ): 3.508E+14  Parms: VV      U1      
 cg2d: Sum(rhs),rhsMax =  -2.75295347544146E+01  2.85577754261554E-01
 Compute Stats, Diag. #    214  SIarea    vol(   0 ): 3.580E+14  Parms: SM      M1      
 Compute Stats, Diag. #    217  SIheff    vol(   0 ): 3.580E+14  Parms: SM      M1      
 Compute Stats, Diag. #    219  SIhsnow   vol(   0 ): 3.580E+14  Parms: SM      M1      
 Compute Stats, Diag. #     83  sIceLoad  vol(   0 ): 3.580E+14  Parms: SM      U1      
 Compute Stats, Diag. #    223  SIuice    vol(   0 ): 3.513E+14  Parms: UU      M1      
 Compute Stats, Diag. #    224  SIvice    vol(   0 ): 3.508E+14  Parms: VV      M1      
 Compute Stats, Diag. #    225  SItaux    vol(   0 ): 3.513E+14  Parms: UU      U1      
 Compute Stats, Diag. #    226  SItauy    vol(   0 ): 3.508E+14  Parms: VV      U1      
 cg2d: Sum(rhs),rhsMax =  -2.76244838407067E+01  2.85527079743052E-01
 Compute Stats, Diag. #    214  SIarea    vol(   0 ): 3.580E+14  Parms: SM      M1      
 Compute Stats, Diag. #    217  SIheff    vol(   0 ): 3.580E+14  Parms: SM      M1      
 Compute Stats, Diag. #    219  SIhsnow   vol(   0 ): 3.580E+14  Parms: SM      M1      
 Compute Stats, Diag. #     83  sIceLoad  vol(   0 ): 3.580E+14  Parms: SM      U1      
 Compute Stats, Diag. #    223  SIuice    vol(   0 ): 3.513E+14  Parms: UU      M1      
 Compute Stats, Diag. #    224  SIvice    vol(   0 ): 3.508E+14  Parms: VV      M1      
 Compute Stats, Diag. #    225  SItaux    vol(   0 ): 3.513E+14  Parms: UU      U1      
 Compute Stats, Diag. #    226  SItauy    vol(   0 ): 3.508E+14  Parms: VV      U1      
 cg2d: Sum(rhs),rhsMax =  -2.77223207049825E+01  2.85474125175612E-01
(PID.TID 0000.0001)      cg2d_init_res =   4.65775621489174E-02
(PID.TID 0000.0001)      cg2d_iters(min,last) =      -1      24
(PID.TID 0000.0001)      cg2d_last_res =   2.66380663504331E-05
(PID.TID 0000.0001) // =======================================================
(PID.TID 0000.0001) // Begin MONITOR dynamic field statistics
(PID.TID 0000.0001) // =======================================================
(PID.TID 0000.0001) %MON time_tsnumber                =                   920
(PID.TID 0000.0001) %MON time_secondsf                =   8.2800000000000E+05
(PID.TID 0000.0001) %MON dynstat_eta_max              =   1.0185364259295E+00
(PID.TID 0000.0001) %MON dynstat_eta_min              =  -1.8210282664411E+00
(PID.TID 0000.0001) %MON dynstat_eta_mean             =   8.7694554311615E-04
(PID.TID 0000.0001) %MON dynstat_eta_sd               =   6.2611271137593E-01
(PID.TID 0000.0001) %MON dynstat_eta_del2             =   5.0538134548666E-05
(PID.TID 0000.0001) %MON dynstat_uvel_max             =   6.9576716157741E-01
(PID.TID 0000.0001) %MON dynstat_uvel_min             =  -7.8872672049876E-01
(PID.TID 0000.0001) %MON dynstat_uvel_mean            =   1.2626870187965E-03
(PID.TID 0000.0001) %MON dynstat_uvel_sd              =   1.8063840494849E-02
(PID.TID 0000.0001) %MON dynstat_uvel_del2            =   7.0580081055515E-06
(PID.TID 0000.0001) %MON dynstat_vvel_max             =   5.5380205839219E-01
(PID.TID 0000.0001) %MON dynstat_vvel_min             =  -8.8385317117353E-01
(PID.TID 0000.0001) %MON dynstat_vvel_mean            =   9.9297567996504E-04
(PID.TID 0000.0001) %MON dynstat_vvel_sd              =   1.9388148120860E-02
(PID.TID 0000.0001) %MON dynstat_vvel_del2            =   7.1202844689158E-06
(PID.TID 0000.0001) %MON dynstat_wvel_max             =   2.9313843443069E-04
(PID.TID 0000.0001) %MON dynstat_wvel_min             =  -7.6051285242456E-04
(PID.TID 0000.0001) %MON dynstat_wvel_mean            =   4.2146786988982E-10
(PID.TID 0000.0001) %MON dynstat_wvel_sd              =   1.8282812891138E-05
(PID.TID 0000.0001) %MON dynstat_wvel_del2            =   1.3516849581439E-08
(PID.TID 0000.0001) %MON dynstat_theta_max            =   3.1916198947836E+01
(PID.TID 0000.0001) %MON dynstat_theta_min            =  -2.0397429327965E+00
(PID.TID 0000.0001) %MON dynstat_theta_mean           =   3.5901847885257E+00
(PID.TID 0000.0001) %MON dynstat_theta_sd             =   4.4367003728013E+00
(PID.TID 0000.0001) %MON dynstat_theta_del2           =   9.0913112053139E-05
(PID.TID 0000.0001) %MON dynstat_salt_max             =   4.0711542533328E+01
(PID.TID 0000.0001) %MON dynstat_salt_min             =   5.7314725574912E+00
(PID.TID 0000.0001) %MON dynstat_salt_mean            =   3.4725564070751E+01
(PID.TID 0000.0001) %MON dynstat_salt_sd              =   3.7709080966921E-01
(PID.TID 0000.0001) %MON dynstat_salt_del2            =   3.5447449027323E-05
(PID.TID 0000.0001) %MON dynstat_sst_max              =   3.1913200676121E+01
(PID.TID 0000.0001) %MON dynstat_sst_min              =  -1.8121819414537E+00
(PID.TID 0000.0001) %MON dynstat_sst_mean             =   1.8455361026487E+01
(PID.TID 0000.0001) %MON dynstat_sst_sd               =   1.0272543901948E+01
(PID.TID 0000.0001) %MON dynstat_sst_del2             =   7.9640979931748E-04
(PID.TID 0000.0001) %MON dynstat_sss_max              =   3.9099373939759E+01
(PID.TID 0000.0001) %MON dynstat_sss_min              =   5.7314725574912E+00
(PID.TID 0000.0001) %MON dynstat_sss_mean             =   3.4700451402635E+01
(PID.TID 0000.0001) %MON dynstat_sss_sd               =   1.1782941216576E+00
(PID.TID 0000.0001) %MON dynstat_sss_del2             =   1.0835061814034E-03
(PID.TID 0000.0001) %MON forcing_qnet_max             =   7.9439435257428E+02
(PID.TID 0000.0001) %MON forcing_qnet_min             =  -6.9309055944417E+02
(PID.TID 0000.0001) %MON forcing_qnet_mean            =   3.3034828950885E+01
(PID.TID 0000.0001) %MON forcing_qnet_sd              =   1.7886413964342E+02
(PID.TID 0000.0001) %MON forcing_qnet_del2            =   3.0716011785209E-01
(PID.TID 0000.0001) %MON forcing_qsw_max              =   0.0000000000000E+00
(PID.TID 0000.0001) %MON forcing_qsw_min              =  -9.9634463323474E+01
(PID.TID 0000.0001) %MON forcing_qsw_mean             =  -1.4232102375613E+01
(PID.TID 0000.0001) %MON forcing_qsw_sd               =   2.3981293723786E+01
(PID.TID 0000.0001) %MON forcing_qsw_del2             =   2.0722644915886E-02
(PID.TID 0000.0001) %MON forcing_empmr_max            =   1.7454698681831E-03
(PID.TID 0000.0001) %MON forcing_empmr_min            =  -3.5128865391016E-02
(PID.TID 0000.0001) %MON forcing_empmr_mean           =  -3.5384937436474E-06
(PID.TID 0000.0001) %MON forcing_empmr_sd             =   1.8498578481549E-04
(PID.TID 0000.0001) %MON forcing_empmr_del2           =   1.8332851400316E-06
(PID.TID 0000.0001) %MON forcing_fu_max               =   1.0787085294723E+00
(PID.TID 0000.0001) %MON forcing_fu_min               =  -8.1232023239136E-01
(PID.TID 0000.0001) %MON forcing_fu_mean              =  -8.8105396525091E-04
(PID.TID 0000.0001) %MON forcing_fu_sd                =   1.1132834615283E-01
(PID.TID 0000.0001) %MON forcing_fu_del2              =   1.5291800494184E-04
(PID.TID 0000.0001) %MON forcing_fv_max               =   7.7882653474807E-01
(PID.TID 0000.0001) %MON forcing_fv_min               =  -6.5083578228951E-01
(PID.TID 0000.0001) %MON forcing_fv_mean              =  -9.7077518835625E-03
(PID.TID 0000.0001) %MON forcing_fv_sd                =   1.1229228324644E-01
(PID.TID 0000.0001) %MON forcing_fv_del2              =   1.3896137234597E-04
(PID.TID 0000.0001) %MON trAdv_CFL_u_max              =   1.1413700269653E-02
(PID.TID 0000.0001) %MON trAdv_CFL_v_max              =   1.3596223394380E-02
(PID.TID 0000.0001) %MON trAdv_CFL_w_max              =   2.0200506073129E-02
(PID.TID 0000.0001) %MON advcfl_uvel_max              =   8.4606040793932E-03
(PID.TID 0000.0001) %MON advcfl_vvel_max              =   1.1131571239008E-02
(PID.TID 0000.0001) %MON advcfl_wvel_max              =   1.7753405956135E-02
(PID.TID 0000.0001) %MON advcfl_W_hf_max              =   1.8380911645685E-02
(PID.TID 0000.0001) %MON pe_b_mean                    =   5.1566074322026E-04
(PID.TID 0000.0001) %MON ke_max                       =   4.0275781333323E-01
(PID.TID 0000.0001) %MON ke_mean                      =   3.3984314228381E-04
(PID.TID 0000.0001) %MON ke_vol                       =   1.3349981897899E+18
(PID.TID 0000.0001) %MON vort_r_min                   =  -8.6662837559202E-06
(PID.TID 0000.0001) %MON vort_r_max                   =   1.2455659742449E-05
(PID.TID 0000.0001) %MON vort_a_mean                  =  -1.9727864647440E-05
(PID.TID 0000.0001) %MON vort_a_sd                    =   7.4542948530095E-05
(PID.TID 0000.0001) %MON vort_p_mean                  =  -2.1760528982875E-05
(PID.TID 0000.0001) %MON vort_p_sd                    =   9.7246292652623E-05
(PID.TID 0000.0001) %MON surfExpan_theta_mean         =  -3.1344649392428E-08
(PID.TID 0000.0001) %MON surfExpan_salt_mean          =   4.4907916540272E-08
(PID.TID 0000.0001) // =======================================================
(PID.TID 0000.0001) // End MONITOR dynamic field statistics
(PID.TID 0000.0001) // =======================================================
(PID.TID 0000.0001) // =======================================================
(PID.TID 0000.0001) // Begin MONITOR SEAICE statistics
(PID.TID 0000.0001) // =======================================================
(PID.TID 0000.0001) %MON seaice_tsnumber              =                   920
(PID.TID 0000.0001) %MON seaice_time_sec              =   8.2800000000000E+05
(PID.TID 0000.0001) %MON seaice_uice_max              =   4.0000000000000E-01
(PID.TID 0000.0001) %MON seaice_uice_min              =  -4.0000000000000E-01
(PID.TID 0000.0001) %MON seaice_uice_mean             =  -8.3054598624025E-03
(PID.TID 0000.0001) %MON seaice_uice_sd               =   1.9802383574176E-01
(PID.TID 0000.0001) %MON seaice_uice_del2             =   2.2931571122150E-04
(PID.TID 0000.0001) %MON seaice_vice_max              =   4.0000000000000E-01
(PID.TID 0000.0001) %MON seaice_vice_min              =  -4.0000000000000E-01
(PID.TID 0000.0001) %MON seaice_vice_mean             =  -2.1960776359499E-02
(PID.TID 0000.0001) %MON seaice_vice_sd               =   2.1302038025672E-01
(PID.TID 0000.0001) %MON seaice_vice_del2             =   2.3932563818061E-04
(PID.TID 0000.0001) %MON seaice_area_max              =   9.9999999813735E-01
(PID.TID 0000.0001) %MON seaice_area_min              =   0.0000000000000E+00
(PID.TID 0000.0001) %MON seaice_area_mean             =   6.5220870469621E-02
(PID.TID 0000.0001) %MON seaice_area_sd               =   2.2872165113017E-01
(PID.TID 0000.0001) %MON seaice_area_del2             =   3.8338640293919E-04
(PID.TID 0000.0001) %MON seaice_heff_max              =   2.4961539212498E+01
(PID.TID 0000.0001) %MON seaice_heff_min              =   0.0000000000000E+00
(PID.TID 0000.0001) %MON seaice_heff_mean             =   2.1201110706629E-01
(PID.TID 0000.0001) %MON seaice_heff_sd               =   1.0660152608944E+00
(PID.TID 0000.0001) %MON seaice_heff_del2             =   3.8281502893876E-03
(PID.TID 0000.0001) %MON seaice_hsnow_max             =   8.2447542314476E+00
(PID.TID 0000.0001) %MON seaice_hsnow_min             =   0.0000000000000E+00
(PID.TID 0000.0001) %MON seaice_hsnow_mean            =   2.3917118132749E-02
(PID.TID 0000.0001) %MON seaice_hsnow_sd              =   1.5592958327975E-01
(PID.TID 0000.0001) %MON seaice_hsnow_del2            =   1.2370687633510E-03
(PID.TID 0000.0001) // =======================================================
(PID.TID 0000.0001) // End MONITOR SEAICE statistics
(PID.TID 0000.0001) // =======================================================
 Computing Diagnostic #     86  oceQnet      Counter:       4   Parms: SM      U1      
 Computing Diagnostic #     87  oceQsw       Counter:       4   Parms: SM      U1      
 Computing Diagnostic #     84  oceFWflx     Counter:       4   Parms: SM      U1      
 Computing Diagnostic #     85  oceSflux     Counter:       4   Parms: SM      U1      
 Computing Diagnostic #     80  oceTAUX      Counter:       4   Parms: UU      U1      
           Vector  Mate for  oceTAUX      Diagnostic #     81  oceTAUY  exists 
 Computing Diagnostic #     81  oceTAUY      Counter:       4   Parms: VV      U1      
           Vector  Mate for  oceTAUY      Diagnostic #     80  oceTAUX  exists 
 Computing Diagnostic #     26  THETA        Counter:       4   Parms: SMR     MR      
 Computing Diagnostic #     27  SALT         Counter:       4   Parms: SMR     MR      
 Computing Diagnostic #     30  UVEL         Counter:       4   Parms: UUR     MR      
           Vector  Mate for  UVEL         Diagnostic #     31  VVEL     exists 
 Computing Diagnostic #     31  VVEL         Counter:       4   Parms: VVR     MR      
           Vector  Mate for  VVEL         Diagnostic #     30  UVEL     exists 
 Computing Diagnostic #    214  SIarea       Counter:       4   Parms: SM      M1      
 Computing Diagnostic #    217  SIheff       Counter:       4   Parms: SM      M1      
 Computing Diagnostic #    219  SIhsnow      Counter:       4   Parms: SM      M1      
 Computing Diagnostic #     83  sIceLoad     Counter:       4   Parms: SM      U1      
 Computing Diagnostic #    223  SIuice       Counter:       4   Parms: UU      M1      
           Vector  Mate for  SIuice       Diagnostic #    224  SIvice   exists 
 Computing Diagnostic #    224  SIvice       Counter:       4   Parms: VV      M1      
           Vector  Mate for  SIvice       Diagnostic #    223  SIuice   exists 
 Computing Diagnostic #    225  SItaux       Counter:       4   Parms: UU      U1      
           Vector  Mate for  SItaux       Diagnostic #    226  SItauy   exists 
 Computing Diagnostic #    226  SItauy       Counter:       4   Parms: VV      U1      
           Vector  Mate for  SItauy       Diagnostic #    225  SItaux   exists 
 Computing Diagnostic #    285  SIareaN      Counter:       4   Parms: SM      MX      
 Computing Diagnostic #    284  SIheffN      Counter:       4   Parms: SM      MX      
 Computing Diagnostic #    286  SIhsnowN     Counter:       4   Parms: SM      MX      
 Compute Stats, Diag. #    214  SIarea    vol(   0 ): 3.580E+14  Parms: SM      M1      
 Compute Stats, Diag. #    217  SIheff    vol(   0 ): 3.580E+14  Parms: SM      M1      
 Compute Stats, Diag. #    219  SIhsnow   vol(   0 ): 3.580E+14  Parms: SM      M1      
 Compute Stats, Diag. #     83  sIceLoad  vol(   0 ): 3.580E+14  Parms: SM      U1      
 Compute Stats, Diag. #    223  SIuice    vol(   0 ): 3.513E+14  Parms: UU      M1      
 Compute Stats, Diag. #    224  SIvice    vol(   0 ): 3.508E+14  Parms: VV      M1      
 Compute Stats, Diag. #    225  SItaux    vol(   0 ): 3.513E+14  Parms: UU      U1      
 Compute Stats, Diag. #    226  SItauy    vol(   0 ): 3.508E+14  Parms: VV      U1      
 cg2d: Sum(rhs),rhsMax =  -2.78253092668747E+01  2.85419329673506E-01
 Compute Stats, Diag. #    214  SIarea    vol(   0 ): 3.580E+14  Parms: SM      M1      
 Compute Stats, Diag. #    217  SIheff    vol(   0 ): 3.580E+14  Parms: SM      M1      
 Compute Stats, Diag. #    219  SIhsnow   vol(   0 ): 3.580E+14  Parms: SM      M1      
 Compute Stats, Diag. #     83  sIceLoad  vol(   0 ): 3.580E+14  Parms: SM      U1      
 Compute Stats, Diag. #    223  SIuice    vol(   0 ): 3.513E+14  Parms: UU      M1      
 Compute Stats, Diag. #    224  SIvice    vol(   0 ): 3.508E+14  Parms: VV      M1      
 Compute Stats, Diag. #    225  SItaux    vol(   0 ): 3.513E+14  Parms: UU      U1      
 Compute Stats, Diag. #    226  SItauy    vol(   0 ): 3.508E+14  Parms: VV      U1      
 cg2d: Sum(rhs),rhsMax =  -2.79278718758250E+01  2.85362963195801E-01
 Compute Stats, Diag. #    214  SIarea    vol(   0 ): 3.580E+14  Parms: SM      M1      
 Compute Stats, Diag. #    217  SIheff    vol(   0 ): 3.580E+14  Parms: SM      M1      
 Compute Stats, Diag. #    219  SIhsnow   vol(   0 ): 3.580E+14  Parms: SM      M1      
 Compute Stats, Diag. #     83  sIceLoad  vol(   0 ): 3.580E+14  Parms: SM      U1      
 Compute Stats, Diag. #    223  SIuice    vol(   0 ): 3.513E+14  Parms: UU      M1      
 Compute Stats, Diag. #    224  SIvice    vol(   0 ): 3.508E+14  Parms: VV      M1      
 Compute Stats, Diag. #    225  SItaux    vol(   0 ): 3.513E+14  Parms: UU      U1      
 Compute Stats, Diag. #    226  SItauy    vol(   0 ): 3.508E+14  Parms: VV      U1      
 cg2d: Sum(rhs),rhsMax =  -2.80367261809995E+01  2.85305278103767E-01
 Compute Stats, Diag. #    214  SIarea    vol(   0 ): 3.580E+14  Parms: SM      M1      
 Compute Stats, Diag. #    217  SIheff    vol(   0 ): 3.580E+14  Parms: SM      M1      
 Compute Stats, Diag. #    219  SIhsnow   vol(   0 ): 3.580E+14  Parms: SM      M1      
 Compute Stats, Diag. #     83  sIceLoad  vol(   0 ): 3.580E+14  Parms: SM      U1      
 Compute Stats, Diag. #    223  SIuice    vol(   0 ): 3.513E+14  Parms: UU      M1      
 Compute Stats, Diag. #    224  SIvice    vol(   0 ): 3.508E+14  Parms: VV      M1      
 Compute Stats, Diag. #    225  SItaux    vol(   0 ): 3.513E+14  Parms: UU      U1      
 Compute Stats, Diag. #    226  SItauy    vol(   0 ): 3.508E+14  Parms: VV      U1      
 cg2d: Sum(rhs),rhsMax =  -2.81480213222997E+01  2.85246438140385E-01
 Computing Diagnostic #     86  oceQnet      Counter:       4   Parms: SM      U1      
 Computing Diagnostic #     87  oceQsw       Counter:       4   Parms: SM      U1      
 Computing Diagnostic #     84  oceFWflx     Counter:       4   Parms: SM      U1      
 Computing Diagnostic #     85  oceSflux     Counter:       4   Parms: SM      U1      
 Computing Diagnostic #     80  oceTAUX      Counter:       4   Parms: UU      U1      
           Vector  Mate for  oceTAUX      Diagnostic #     81  oceTAUY  exists 
 Computing Diagnostic #     81  oceTAUY      Counter:       4   Parms: VV      U1      
           Vector  Mate for  oceTAUY      Diagnostic #     80  oceTAUX  exists 
 Computing Diagnostic #     26  THETA        Counter:       4   Parms: SMR     MR      
 Computing Diagnostic #     27  SALT         Counter:       4   Parms: SMR     MR      
 Computing Diagnostic #     30  UVEL         Counter:       4   Parms: UUR     MR      
           Vector  Mate for  UVEL         Diagnostic #     31  VVEL     exists 
 Computing Diagnostic #     31  VVEL         Counter:       4   Parms: VVR     MR      
           Vector  Mate for  VVEL         Diagnostic #     30  UVEL     exists 
 Computing Diagnostic #    214  SIarea       Counter:       4   Parms: SM      M1      
 Computing Diagnostic #    217  SIheff       Counter:       4   Parms: SM      M1      
 Computing Diagnostic #    219  SIhsnow      Counter:       4   Parms: SM      M1      
 Computing Diagnostic #     83  sIceLoad     Counter:       4   Parms: SM      U1      
 Computing Diagnostic #    223  SIuice       Counter:       4   Parms: UU      M1      
           Vector  Mate for  SIuice       Diagnostic #    224  SIvice   exists 
 Computing Diagnostic #    224  SIvice       Counter:       4   Parms: VV      M1      
           Vector  Mate for  SIvice       Diagnostic #    223  SIuice   exists 
 Computing Diagnostic #    225  SItaux       Counter:       4   Parms: UU      U1      
           Vector  Mate for  SItaux       Diagnostic #    226  SItauy   exists 
 Computing Diagnostic #    226  SItauy       Counter:       4   Parms: VV      U1      
           Vector  Mate for  SItauy       Diagnostic #    225  SItaux   exists 
 Computing Diagnostic #    285  SIareaN      Counter:       4   Parms: SM      MX      
 Computing Diagnostic #    284  SIheffN      Counter:       4   Parms: SM      MX      
 Computing Diagnostic #    286  SIhsnowN     Counter:       4   Parms: SM      MX      
 Compute Stats, Diag. #    214  SIarea    vol(   0 ): 3.580E+14  Parms: SM      M1      
 Compute Stats, Diag. #    217  SIheff    vol(   0 ): 3.580E+14  Parms: SM      M1      
 Compute Stats, Diag. #    219  SIhsnow   vol(   0 ): 3.580E+14  Parms: SM      M1      
 Compute Stats, Diag. #     83  sIceLoad  vol(   0 ): 3.580E+14  Parms: SM      U1      
 Compute Stats, Diag. #    223  SIuice    vol(   0 ): 3.513E+14  Parms: UU      M1      
 Compute Stats, Diag. #    224  SIvice    vol(   0 ): 3.508E+14  Parms: VV      M1      
 Compute Stats, Diag. #    225  SItaux    vol(   0 ): 3.513E+14  Parms: UU      U1      
 Compute Stats, Diag. #    226  SItauy    vol(   0 ): 3.508E+14  Parms: VV      U1      
 cg2d: Sum(rhs),rhsMax =  -2.82624233922086E+01  2.85187064948208E-01
 Compute Stats, Diag. #    214  SIarea    vol(   0 ): 3.580E+14  Parms: SM      M1      
 Compute Stats, Diag. #    217  SIheff    vol(   0 ): 3.580E+14  Parms: SM      M1      
 Compute Stats, Diag. #    219  SIhsnow   vol(   0 ): 3.580E+14  Parms: SM      M1      
 Compute Stats, Diag. #     83  sIceLoad  vol(   0 ): 3.580E+14  Parms: SM      U1      
 Compute Stats, Diag. #    223  SIuice    vol(   0 ): 3.513E+14  Parms: UU      M1      
 Compute Stats, Diag. #    224  SIvice    vol(   0 ): 3.508E+14  Parms: VV      M1      
 Compute Stats, Diag. #    225  SItaux    vol(   0 ): 3.513E+14  Parms: UU      U1      
 Compute Stats, Diag. #    226  SItauy    vol(   0 ): 3.508E+14  Parms: VV      U1      
 cg2d: Sum(rhs),rhsMax =  -2.83796654039915E+01  2.85127695195609E-01
 Compute Stats, Diag. #    214  SIarea    vol(   0 ): 3.580E+14  Parms: SM      M1      
 Compute Stats, Diag. #    217  SIheff    vol(   0 ): 3.580E+14  Parms: SM      M1      
 Compute Stats, Diag. #    219  SIhsnow   vol(   0 ): 3.580E+14  Parms: SM      M1      
 Compute Stats, Diag. #     83  sIceLoad  vol(   0 ): 3.580E+14  Parms: SM      U1      
 Compute Stats, Diag. #    223  SIuice    vol(   0 ): 3.513E+14  Parms: UU      M1      
 Compute Stats, Diag. #    224  SIvice    vol(   0 ): 3.508E+14  Parms: VV      M1      
 Compute Stats, Diag. #    225  SItaux    vol(   0 ): 3.513E+14  Parms: UU      U1      
 Compute Stats, Diag. #    226  SItauy    vol(   0 ): 3.508E+14  Parms: VV      U1      
 cg2d: Sum(rhs),rhsMax =  -2.85013328882345E+01  2.85069774173362E-01
 Compute Stats, Diag. #    214  SIarea    vol(   0 ): 3.580E+14  Parms: SM      M1      
 Compute Stats, Diag. #    217  SIheff    vol(   0 ): 3.580E+14  Parms: SM      M1      
 Compute Stats, Diag. #    219  SIhsnow   vol(   0 ): 3.580E+14  Parms: SM      M1      
 Compute Stats, Diag. #     83  sIceLoad  vol(   0 ): 3.580E+14  Parms: SM      U1      
 Compute Stats, Diag. #    223  SIuice    vol(   0 ): 3.513E+14  Parms: UU      M1      
 Compute Stats, Diag. #    224  SIvice    vol(   0 ): 3.508E+14  Parms: VV      M1      
 Compute Stats, Diag. #    225  SItaux    vol(   0 ): 3.513E+14  Parms: UU      U1      
 Compute Stats, Diag. #    226  SItauy    vol(   0 ): 3.508E+14  Parms: VV      U1      
 cg2d: Sum(rhs),rhsMax =  -2.86230760806042E+01  2.85012838296281E-01
(PID.TID 0000.0001)      cg2d_init_res =   4.74190601171526E-02
(PID.TID 0000.0001)      cg2d_iters(min,last) =      -1      24
(PID.TID 0000.0001)      cg2d_last_res =   2.83030097534578E-05
(PID.TID 0000.0001) // =======================================================
(PID.TID 0000.0001) // Begin MONITOR dynamic field statistics
(PID.TID 0000.0001) // =======================================================
(PID.TID 0000.0001) %MON time_tsnumber                =                   928
(PID.TID 0000.0001) %MON time_secondsf                =   8.3520000000000E+05
(PID.TID 0000.0001) %MON dynstat_eta_max              =   1.0183369940603E+00
(PID.TID 0000.0001) %MON dynstat_eta_min              =  -1.8192737131591E+00
(PID.TID 0000.0001) %MON dynstat_eta_mean             =   9.0543931246900E-04
(PID.TID 0000.0001) %MON dynstat_eta_sd               =   6.2559925736228E-01
(PID.TID 0000.0001) %MON dynstat_eta_del2             =   5.0523479570145E-05
(PID.TID 0000.0001) %MON dynstat_uvel_max             =   6.9926461139261E-01
(PID.TID 0000.0001) %MON dynstat_uvel_min             =  -7.9459389132126E-01
(PID.TID 0000.0001) %MON dynstat_uvel_mean            =   1.2568882259548E-03
(PID.TID 0000.0001) %MON dynstat_uvel_sd              =   1.8042959351923E-02
(PID.TID 0000.0001) %MON dynstat_uvel_del2            =   7.0886607491298E-06
(PID.TID 0000.0001) %MON dynstat_vvel_max             =   5.5779003537303E-01
(PID.TID 0000.0001) %MON dynstat_vvel_min             =  -8.8702021709538E-01
(PID.TID 0000.0001) %MON dynstat_vvel_mean            =   9.8949641129360E-04
(PID.TID 0000.0001) %MON dynstat_vvel_sd              =   1.9379106983017E-02
(PID.TID 0000.0001) %MON dynstat_vvel_del2            =   7.1452462965066E-06
(PID.TID 0000.0001) %MON dynstat_wvel_max             =   2.9039414005262E-04
(PID.TID 0000.0001) %MON dynstat_wvel_min             =  -7.5965546135130E-04
(PID.TID 0000.0001) %MON dynstat_wvel_mean            =  -2.8969133727754E-10
(PID.TID 0000.0001) %MON dynstat_wvel_sd              =   1.8133324987074E-05
(PID.TID 0000.0001) %MON dynstat_wvel_del2            =   1.3620484085810E-08
(PID.TID 0000.0001) %MON dynstat_theta_max            =   3.1903183708063E+01
(PID.TID 0000.0001) %MON dynstat_theta_min            =  -2.0397372141643E+00
(PID.TID 0000.0001) %MON dynstat_theta_mean           =   3.5901718826568E+00
(PID.TID 0000.0001) %MON dynstat_theta_sd             =   4.4366594696652E+00
(PID.TID 0000.0001) %MON dynstat_theta_del2           =   9.0882632286536E-05
(PID.TID 0000.0001) %MON dynstat_salt_max             =   4.0711542562550E+01
(PID.TID 0000.0001) %MON dynstat_salt_min             =   5.8452957000413E+00
(PID.TID 0000.0001) %MON dynstat_salt_mean            =   3.4725563802628E+01
(PID.TID 0000.0001) %MON dynstat_salt_sd              =   3.7709094197423E-01
(PID.TID 0000.0001) %MON dynstat_salt_del2            =   3.5321749568072E-05
(PID.TID 0000.0001) %MON dynstat_sst_max              =   3.1890452487492E+01
(PID.TID 0000.0001) %MON dynstat_sst_min              =  -1.8131353679545E+00
(PID.TID 0000.0001) %MON dynstat_sst_mean             =   1.8453806643913E+01
(PID.TID 0000.0001) %MON dynstat_sst_sd               =   1.0272834346808E+01
(PID.TID 0000.0001) %MON dynstat_sst_del2             =   7.9559937911603E-04
(PID.TID 0000.0001) %MON dynstat_sss_max              =   3.9099246684144E+01
(PID.TID 0000.0001) %MON dynstat_sss_min              =   5.8452957000413E+00
(PID.TID 0000.0001) %MON dynstat_sss_mean             =   3.4700507540775E+01
(PID.TID 0000.0001) %MON dynstat_sss_sd               =   1.1784575616009E+00
(PID.TID 0000.0001) %MON dynstat_sss_del2             =   1.0772243056453E-03
(PID.TID 0000.0001) %MON forcing_qnet_max             =   5.9777301025391E+02
(PID.TID 0000.0001) %MON forcing_qnet_min             =  -7.1881945188498E+02
(PID.TID 0000.0001) %MON forcing_qnet_mean            =   2.3115345172942E+01
(PID.TID 0000.0001) %MON forcing_qnet_sd              =   2.0631149260953E+02
(PID.TID 0000.0001) %MON forcing_qnet_del2            =   3.0678211835919E-01
(PID.TID 0000.0001) %MON forcing_qsw_max              =   0.0000000000000E+00
(PID.TID 0000.0001) %MON forcing_qsw_min              =  -1.0433766834591E+02
(PID.TID 0000.0001) %MON forcing_qsw_mean             =  -1.5556066853265E+01
(PID.TID 0000.0001) %MON forcing_qsw_sd               =   2.7494522743760E+01
(PID.TID 0000.0001) %MON forcing_qsw_del2             =   2.1610525722887E-02
(PID.TID 0000.0001) %MON forcing_empmr_max            =   1.5024143503979E-03
(PID.TID 0000.0001) %MON forcing_empmr_min            =  -4.4779412448406E-02
(PID.TID 0000.0001) %MON forcing_empmr_mean           =  -4.4031207228010E-06
(PID.TID 0000.0001) %MON forcing_empmr_sd             =   2.0743277395780E-04
(PID.TID 0000.0001) %MON forcing_empmr_del2           =   1.9831138552248E-06
(PID.TID 0000.0001) %MON forcing_fu_max               =   9.2131626605987E-01
(PID.TID 0000.0001) %MON forcing_fu_min               =  -7.0959943532944E-01
(PID.TID 0000.0001) %MON forcing_fu_mean              =  -1.2703462462148E-03
(PID.TID 0000.0001) %MON forcing_fu_sd                =   1.1113123931684E-01
(PID.TID 0000.0001) %MON forcing_fu_del2              =   1.5825949661141E-04
(PID.TID 0000.0001) %MON forcing_fv_max               =   7.9637673497200E-01
(PID.TID 0000.0001) %MON forcing_fv_min               =  -8.2046625018120E-01
(PID.TID 0000.0001) %MON forcing_fv_mean              =  -8.9348173057397E-03
(PID.TID 0000.0001) %MON forcing_fv_sd                =   1.1357277081656E-01
(PID.TID 0000.0001) %MON forcing_fv_del2              =   1.4455635485416E-04
(PID.TID 0000.0001) %MON trAdv_CFL_u_max              =   1.1415445796758E-02
(PID.TID 0000.0001) %MON trAdv_CFL_v_max              =   1.3734259847577E-02
(PID.TID 0000.0001) %MON trAdv_CFL_w_max              =   2.0394465368877E-02
(PID.TID 0000.0001) %MON advcfl_uvel_max              =   8.5626306008254E-03
(PID.TID 0000.0001) %MON advcfl_vvel_max              =   1.1211730655516E-02
(PID.TID 0000.0001) %MON advcfl_wvel_max              =   1.7819830956052E-02
(PID.TID 0000.0001) %MON advcfl_W_hf_max              =   1.8571827761504E-02
(PID.TID 0000.0001) %MON pe_b_mean                    =   5.1481540251509E-04
(PID.TID 0000.0001) %MON ke_max                       =   4.0838232547151E-01
(PID.TID 0000.0001) %MON ke_mean                      =   3.3930024382531E-04
(PID.TID 0000.0001) %MON ke_vol                       =   1.3349981997204E+18
(PID.TID 0000.0001) %MON vort_r_min                   =  -9.7749486902927E-06
(PID.TID 0000.0001) %MON vort_r_max                   =   1.2170760495410E-05
(PID.TID 0000.0001) %MON vort_a_mean                  =  -1.9727864647440E-05
(PID.TID 0000.0001) %MON vort_a_sd                    =   7.4542947690418E-05
(PID.TID 0000.0001) %MON vort_p_mean                  =  -2.1760528816980E-05
(PID.TID 0000.0001) %MON vort_p_sd                    =   9.7246220138898E-05
(PID.TID 0000.0001) %MON surfExpan_theta_mean         =  -8.5263735634854E-08
(PID.TID 0000.0001) %MON surfExpan_salt_mean          =   4.3201121300820E-08
(PID.TID 0000.0001) // =======================================================
(PID.TID 0000.0001) // End MONITOR dynamic field statistics
(PID.TID 0000.0001) // =======================================================
(PID.TID 0000.0001) // =======================================================
(PID.TID 0000.0001) // Begin MONITOR SEAICE statistics
(PID.TID 0000.0001) // =======================================================
(PID.TID 0000.0001) %MON seaice_tsnumber              =                   928
(PID.TID 0000.0001) %MON seaice_time_sec              =   8.3520000000000E+05
(PID.TID 0000.0001) %MON seaice_uice_max              =   4.0000000000000E-01
(PID.TID 0000.0001) %MON seaice_uice_min              =  -4.0000000000000E-01
(PID.TID 0000.0001) %MON seaice_uice_mean             =  -8.3054598624025E-03
(PID.TID 0000.0001) %MON seaice_uice_sd               =   1.9802383574176E-01
(PID.TID 0000.0001) %MON seaice_uice_del2             =   2.2931571122150E-04
(PID.TID 0000.0001) %MON seaice_vice_max              =   4.0000000000000E-01
(PID.TID 0000.0001) %MON seaice_vice_min              =  -4.0000000000000E-01
(PID.TID 0000.0001) %MON seaice_vice_mean             =  -2.1960776359499E-02
(PID.TID 0000.0001) %MON seaice_vice_sd               =   2.1302038025672E-01
(PID.TID 0000.0001) %MON seaice_vice_del2             =   2.3932563818061E-04
(PID.TID 0000.0001) %MON seaice_area_max              =   1.0000000000000E+00
(PID.TID 0000.0001) %MON seaice_area_min              =   0.0000000000000E+00
(PID.TID 0000.0001) %MON seaice_area_mean             =   6.5200511689806E-02
(PID.TID 0000.0001) %MON seaice_area_sd               =   2.2868880822338E-01
(PID.TID 0000.0001) %MON seaice_area_del2             =   3.8305881685660E-04
(PID.TID 0000.0001) %MON seaice_heff_max              =   2.4959703288390E+01
(PID.TID 0000.0001) %MON seaice_heff_min              =   0.0000000000000E+00
(PID.TID 0000.0001) %MON seaice_heff_mean             =   2.1198676574101E-01
(PID.TID 0000.0001) %MON seaice_heff_sd               =   1.0659918342760E+00
(PID.TID 0000.0001) %MON seaice_heff_del2             =   3.8275017431831E-03
(PID.TID 0000.0001) %MON seaice_hsnow_max             =   8.2441511863435E+00
(PID.TID 0000.0001) %MON seaice_hsnow_min             =   0.0000000000000E+00
(PID.TID 0000.0001) %MON seaice_hsnow_mean            =   2.3910730525467E-02
(PID.TID 0000.0001) %MON seaice_hsnow_sd              =   1.5591622224228E-01
(PID.TID 0000.0001) %MON seaice_hsnow_del2            =   1.2369365785338E-03
(PID.TID 0000.0001) // =======================================================
(PID.TID 0000.0001) // End MONITOR SEAICE statistics
(PID.TID 0000.0001) // =======================================================
 Computing Diagnostic #     86  oceQnet      Counter:       4   Parms: SM      U1      
 Computing Diagnostic #     87  oceQsw       Counter:       4   Parms: SM      U1      
 Computing Diagnostic #     84  oceFWflx     Counter:       4   Parms: SM      U1      
 Computing Diagnostic #     85  oceSflux     Counter:       4   Parms: SM      U1      
 Computing Diagnostic #     80  oceTAUX      Counter:       4   Parms: UU      U1      
           Vector  Mate for  oceTAUX      Diagnostic #     81  oceTAUY  exists 
 Computing Diagnostic #     81  oceTAUY      Counter:       4   Parms: VV      U1      
           Vector  Mate for  oceTAUY      Diagnostic #     80  oceTAUX  exists 
 Computing Diagnostic #     26  THETA        Counter:       4   Parms: SMR     MR      
 Computing Diagnostic #     27  SALT         Counter:       4   Parms: SMR     MR      
 Computing Diagnostic #     30  UVEL         Counter:       4   Parms: UUR     MR      
           Vector  Mate for  UVEL         Diagnostic #     31  VVEL     exists 
 Computing Diagnostic #     31  VVEL         Counter:       4   Parms: VVR     MR      
           Vector  Mate for  VVEL         Diagnostic #     30  UVEL     exists 
 Computing Diagnostic #    214  SIarea       Counter:       4   Parms: SM      M1      
 Computing Diagnostic #    217  SIheff       Counter:       4   Parms: SM      M1      
 Computing Diagnostic #    219  SIhsnow      Counter:       4   Parms: SM      M1      
 Computing Diagnostic #     83  sIceLoad     Counter:       4   Parms: SM      U1      
 Computing Diagnostic #    223  SIuice       Counter:       4   Parms: UU      M1      
           Vector  Mate for  SIuice       Diagnostic #    224  SIvice   exists 
 Computing Diagnostic #    224  SIvice       Counter:       4   Parms: VV      M1      
           Vector  Mate for  SIvice       Diagnostic #    223  SIuice   exists 
 Computing Diagnostic #    225  SItaux       Counter:       4   Parms: UU      U1      
           Vector  Mate for  SItaux       Diagnostic #    226  SItauy   exists 
 Computing Diagnostic #    226  SItauy       Counter:       4   Parms: VV      U1      
           Vector  Mate for  SItauy       Diagnostic #    225  SItaux   exists 
 Computing Diagnostic #    285  SIareaN      Counter:       4   Parms: SM      MX      
 Computing Diagnostic #    284  SIheffN      Counter:       4   Parms: SM      MX      
 Computing Diagnostic #    286  SIhsnowN     Counter:       4   Parms: SM      MX      
 Compute Stats, Diag. #    214  SIarea    vol(   0 ): 3.580E+14  Parms: SM      M1      
 Compute Stats, Diag. #    217  SIheff    vol(   0 ): 3.580E+14  Parms: SM      M1      
 Compute Stats, Diag. #    219  SIhsnow   vol(   0 ): 3.580E+14  Parms: SM      M1      
 Compute Stats, Diag. #     83  sIceLoad  vol(   0 ): 3.580E+14  Parms: SM      U1      
 Compute Stats, Diag. #    223  SIuice    vol(   0 ): 3.513E+14  Parms: UU      M1      
 Compute Stats, Diag. #    224  SIvice    vol(   0 ): 3.508E+14  Parms: VV      M1      
 Compute Stats, Diag. #    225  SItaux    vol(   0 ): 3.513E+14  Parms: UU      U1      
 Compute Stats, Diag. #    226  SItauy    vol(   0 ): 3.508E+14  Parms: VV      U1      
 cg2d: Sum(rhs),rhsMax =  -2.87517266427393E+01  2.84957549753596E-01
 Compute Stats, Diag. #    214  SIarea    vol(   0 ): 3.580E+14  Parms: SM      M1      
 Compute Stats, Diag. #    217  SIheff    vol(   0 ): 3.580E+14  Parms: SM      M1      
 Compute Stats, Diag. #    219  SIhsnow   vol(   0 ): 3.580E+14  Parms: SM      M1      
 Compute Stats, Diag. #     83  sIceLoad  vol(   0 ): 3.580E+14  Parms: SM      U1      
 Compute Stats, Diag. #    223  SIuice    vol(   0 ): 3.513E+14  Parms: UU      M1      
 Compute Stats, Diag. #    224  SIvice    vol(   0 ): 3.508E+14  Parms: VV      M1      
 Compute Stats, Diag. #    225  SItaux    vol(   0 ): 3.513E+14  Parms: UU      U1      
 Compute Stats, Diag. #    226  SItauy    vol(   0 ): 3.508E+14  Parms: VV      U1      
 cg2d: Sum(rhs),rhsMax =  -2.88824450181845E+01  2.84903809047567E-01
 Compute Stats, Diag. #    214  SIarea    vol(   0 ): 3.580E+14  Parms: SM      M1      
 Compute Stats, Diag. #    217  SIheff    vol(   0 ): 3.580E+14  Parms: SM      M1      
 Compute Stats, Diag. #    219  SIhsnow   vol(   0 ): 3.580E+14  Parms: SM      M1      
 Compute Stats, Diag. #     83  sIceLoad  vol(   0 ): 3.580E+14  Parms: SM      U1      
 Compute Stats, Diag. #    223  SIuice    vol(   0 ): 3.513E+14  Parms: UU      M1      
 Compute Stats, Diag. #    224  SIvice    vol(   0 ): 3.508E+14  Parms: VV      M1      
 Compute Stats, Diag. #    225  SItaux    vol(   0 ): 3.513E+14  Parms: UU      U1      
 Compute Stats, Diag. #    226  SItauy    vol(   0 ): 3.508E+14  Parms: VV      U1      
 cg2d: Sum(rhs),rhsMax =  -2.90149450512476E+01  2.84852708534104E-01
 Compute Stats, Diag. #    214  SIarea    vol(   0 ): 3.580E+14  Parms: SM      M1      
 Compute Stats, Diag. #    217  SIheff    vol(   0 ): 3.580E+14  Parms: SM      M1      
 Compute Stats, Diag. #    219  SIhsnow   vol(   0 ): 3.580E+14  Parms: SM      M1      
 Compute Stats, Diag. #     83  sIceLoad  vol(   0 ): 3.580E+14  Parms: SM      U1      
 Compute Stats, Diag. #    223  SIuice    vol(   0 ): 3.513E+14  Parms: UU      M1      
 Compute Stats, Diag. #    224  SIvice    vol(   0 ): 3.508E+14  Parms: VV      M1      
 Compute Stats, Diag. #    225  SItaux    vol(   0 ): 3.513E+14  Parms: UU      U1      
 Compute Stats, Diag. #    226  SItauy    vol(   0 ): 3.508E+14  Parms: VV      U1      
 cg2d: Sum(rhs),rhsMax =  -2.91478007425352E+01  2.84804513058934E-01
 Computing Diagnostic #     86  oceQnet      Counter:       4   Parms: SM      U1      
 Computing Diagnostic #     87  oceQsw       Counter:       4   Parms: SM      U1      
 Computing Diagnostic #     84  oceFWflx     Counter:       4   Parms: SM      U1      
 Computing Diagnostic #     85  oceSflux     Counter:       4   Parms: SM      U1      
 Computing Diagnostic #     80  oceTAUX      Counter:       4   Parms: UU      U1      
           Vector  Mate for  oceTAUX      Diagnostic #     81  oceTAUY  exists 
 Computing Diagnostic #     81  oceTAUY      Counter:       4   Parms: VV      U1      
           Vector  Mate for  oceTAUY      Diagnostic #     80  oceTAUX  exists 
 Computing Diagnostic #     26  THETA        Counter:       4   Parms: SMR     MR      
 Computing Diagnostic #     27  SALT         Counter:       4   Parms: SMR     MR      
 Computing Diagnostic #     30  UVEL         Counter:       4   Parms: UUR     MR      
           Vector  Mate for  UVEL         Diagnostic #     31  VVEL     exists 
 Computing Diagnostic #     31  VVEL         Counter:       4   Parms: VVR     MR      
           Vector  Mate for  VVEL         Diagnostic #     30  UVEL     exists 
 Computing Diagnostic #    214  SIarea       Counter:       4   Parms: SM      M1      
 Computing Diagnostic #    217  SIheff       Counter:       4   Parms: SM      M1      
 Computing Diagnostic #    219  SIhsnow      Counter:       4   Parms: SM      M1      
 Computing Diagnostic #     83  sIceLoad     Counter:       4   Parms: SM      U1      
 Computing Diagnostic #    223  SIuice       Counter:       4   Parms: UU      M1      
           Vector  Mate for  SIuice       Diagnostic #    224  SIvice   exists 
 Computing Diagnostic #    224  SIvice       Counter:       4   Parms: VV      M1      
           Vector  Mate for  SIvice       Diagnostic #    223  SIuice   exists 
 Computing Diagnostic #    225  SItaux       Counter:       4   Parms: UU      U1      
           Vector  Mate for  SItaux       Diagnostic #    226  SItauy   exists 
 Computing Diagnostic #    226  SItauy       Counter:       4   Parms: VV      U1      
           Vector  Mate for  SItauy       Diagnostic #    225  SItaux   exists 
 Computing Diagnostic #    285  SIareaN      Counter:       4   Parms: SM      MX      
 Computing Diagnostic #    284  SIheffN      Counter:       4   Parms: SM      MX      
 Computing Diagnostic #    286  SIhsnowN     Counter:       4   Parms: SM      MX      
 Compute Stats, Diag. #    214  SIarea    vol(   0 ): 3.580E+14  Parms: SM      M1      
 Compute Stats, Diag. #    217  SIheff    vol(   0 ): 3.580E+14  Parms: SM      M1      
 Compute Stats, Diag. #    219  SIhsnow   vol(   0 ): 3.580E+14  Parms: SM      M1      
 Compute Stats, Diag. #     83  sIceLoad  vol(   0 ): 3.580E+14  Parms: SM      U1      
 Compute Stats, Diag. #    223  SIuice    vol(   0 ): 3.513E+14  Parms: UU      M1      
 Compute Stats, Diag. #    224  SIvice    vol(   0 ): 3.508E+14  Parms: VV      M1      
 Compute Stats, Diag. #    225  SItaux    vol(   0 ): 3.513E+14  Parms: UU      U1      
 Compute Stats, Diag. #    226  SItauy    vol(   0 ): 3.508E+14  Parms: VV      U1      
 cg2d: Sum(rhs),rhsMax =  -2.92924213309174E+01  2.84760060803543E-01
 Compute Stats, Diag. #    214  SIarea    vol(   0 ): 3.580E+14  Parms: SM      M1      
 Compute Stats, Diag. #    217  SIheff    vol(   0 ): 3.580E+14  Parms: SM      M1      
 Compute Stats, Diag. #    219  SIhsnow   vol(   0 ): 3.580E+14  Parms: SM      M1      
 Compute Stats, Diag. #     83  sIceLoad  vol(   0 ): 3.580E+14  Parms: SM      U1      
 Compute Stats, Diag. #    223  SIuice    vol(   0 ): 3.513E+14  Parms: UU      M1      
 Compute Stats, Diag. #    224  SIvice    vol(   0 ): 3.508E+14  Parms: VV      M1      
 Compute Stats, Diag. #    225  SItaux    vol(   0 ): 3.513E+14  Parms: UU      U1      
 Compute Stats, Diag. #    226  SItauy    vol(   0 ): 3.508E+14  Parms: VV      U1      
 cg2d: Sum(rhs),rhsMax =  -2.94363194818343E+01  2.84719700421014E-01
 Compute Stats, Diag. #    214  SIarea    vol(   0 ): 3.580E+14  Parms: SM      M1      
 Compute Stats, Diag. #    217  SIheff    vol(   0 ): 3.580E+14  Parms: SM      M1      
 Compute Stats, Diag. #    219  SIhsnow   vol(   0 ): 3.580E+14  Parms: SM      M1      
 Compute Stats, Diag. #     83  sIceLoad  vol(   0 ): 3.580E+14  Parms: SM      U1      
 Compute Stats, Diag. #    223  SIuice    vol(   0 ): 3.513E+14  Parms: UU      M1      
 Compute Stats, Diag. #    224  SIvice    vol(   0 ): 3.508E+14  Parms: VV      M1      
 Compute Stats, Diag. #    225  SItaux    vol(   0 ): 3.513E+14  Parms: UU      U1      
 Compute Stats, Diag. #    226  SItauy    vol(   0 ): 3.508E+14  Parms: VV      U1      
 cg2d: Sum(rhs),rhsMax =  -2.95881755288091E+01  2.84683819075974E-01
 Compute Stats, Diag. #    214  SIarea    vol(   0 ): 3.580E+14  Parms: SM      M1      
 Compute Stats, Diag. #    217  SIheff    vol(   0 ): 3.580E+14  Parms: SM      M1      
 Compute Stats, Diag. #    219  SIhsnow   vol(   0 ): 3.580E+14  Parms: SM      M1      
 Compute Stats, Diag. #     83  sIceLoad  vol(   0 ): 3.580E+14  Parms: SM      U1      
 Compute Stats, Diag. #    223  SIuice    vol(   0 ): 3.513E+14  Parms: UU      M1      
 Compute Stats, Diag. #    224  SIvice    vol(   0 ): 3.508E+14  Parms: VV      M1      
 Compute Stats, Diag. #    225  SItaux    vol(   0 ): 3.513E+14  Parms: UU      U1      
 Compute Stats, Diag. #    226  SItauy    vol(   0 ): 3.508E+14  Parms: VV      U1      
 cg2d: Sum(rhs),rhsMax =  -2.97439591866450E+01  2.84652478218395E-01
(PID.TID 0000.0001)      cg2d_init_res =   4.57036314478088E-02
(PID.TID 0000.0001)      cg2d_iters(min,last) =      -1      24
(PID.TID 0000.0001)      cg2d_last_res =   2.80296244629083E-05
(PID.TID 0000.0001) // =======================================================
(PID.TID 0000.0001) // Begin MONITOR dynamic field statistics
(PID.TID 0000.0001) // =======================================================
(PID.TID 0000.0001) %MON time_tsnumber                =                   936
(PID.TID 0000.0001) %MON time_secondsf                =   8.4240000000000E+05
(PID.TID 0000.0001) %MON dynstat_eta_max              =   1.0182977774304E+00
(PID.TID 0000.0001) %MON dynstat_eta_min              =  -1.8178798792172E+00
(PID.TID 0000.0001) %MON dynstat_eta_mean             =   9.4089642497627E-04
(PID.TID 0000.0001) %MON dynstat_eta_sd               =   6.2506498528488E-01
(PID.TID 0000.0001) %MON dynstat_eta_del2             =   5.0589587186621E-05
(PID.TID 0000.0001) %MON dynstat_uvel_max             =   7.0211663611003E-01
(PID.TID 0000.0001) %MON dynstat_uvel_min             =  -8.0327871402347E-01
(PID.TID 0000.0001) %MON dynstat_uvel_mean            =   1.2562136020230E-03
(PID.TID 0000.0001) %MON dynstat_uvel_sd              =   1.8019004901687E-02
(PID.TID 0000.0001) %MON dynstat_uvel_del2            =   7.1255497688239E-06
(PID.TID 0000.0001) %MON dynstat_vvel_max             =   5.6426744204684E-01
(PID.TID 0000.0001) %MON dynstat_vvel_min             =  -8.9213024883322E-01
(PID.TID 0000.0001) %MON dynstat_vvel_mean            =   9.9273872351505E-04
(PID.TID 0000.0001) %MON dynstat_vvel_sd              =   1.9367798966587E-02
(PID.TID 0000.0001) %MON dynstat_vvel_del2            =   7.1830144307406E-06
(PID.TID 0000.0001) %MON dynstat_wvel_max             =   2.8778388231971E-04
(PID.TID 0000.0001) %MON dynstat_wvel_min             =  -7.5878934605691E-04
(PID.TID 0000.0001) %MON dynstat_wvel_mean            =  -2.3379290497701E-09
(PID.TID 0000.0001) %MON dynstat_wvel_sd              =   1.7953324374529E-05
(PID.TID 0000.0001) %MON dynstat_wvel_del2            =   1.3745260908140E-08
(PID.TID 0000.0001) %MON dynstat_theta_max            =   3.1878147067130E+01
(PID.TID 0000.0001) %MON dynstat_theta_min            =  -2.0397316826253E+00
(PID.TID 0000.0001) %MON dynstat_theta_mean           =   3.5901639255070E+00
(PID.TID 0000.0001) %MON dynstat_theta_sd             =   4.4366380779657E+00
(PID.TID 0000.0001) %MON dynstat_theta_del2           =   9.0849533824383E-05
(PID.TID 0000.0001) %MON dynstat_salt_max             =   4.0711542716449E+01
(PID.TID 0000.0001) %MON dynstat_salt_min             =   5.8163616468976E+00
(PID.TID 0000.0001) %MON dynstat_salt_mean            =   3.4725563459931E+01
(PID.TID 0000.0001) %MON dynstat_salt_sd              =   3.7709165958010E-01
(PID.TID 0000.0001) %MON dynstat_salt_del2            =   3.5225616505003E-05
(PID.TID 0000.0001) %MON dynstat_sst_max              =   3.1878064967262E+01
(PID.TID 0000.0001) %MON dynstat_sst_min              =  -1.8127006212939E+00
(PID.TID 0000.0001) %MON dynstat_sst_mean             =   1.8454204553763E+01
(PID.TID 0000.0001) %MON dynstat_sst_sd               =   1.0273843372332E+01
(PID.TID 0000.0001) %MON dynstat_sst_del2             =   7.9471865866570E-04
(PID.TID 0000.0001) %MON dynstat_sss_max              =   3.9099124382209E+01
(PID.TID 0000.0001) %MON dynstat_sss_min              =   5.8163616468976E+00
(PID.TID 0000.0001) %MON dynstat_sss_mean             =   3.4700579359262E+01
(PID.TID 0000.0001) %MON dynstat_sss_sd               =   1.1786834376665E+00
(PID.TID 0000.0001) %MON dynstat_sss_del2             =   1.0726369410513E-03
(PID.TID 0000.0001) %MON forcing_qnet_max             =   1.2466096191406E+03
(PID.TID 0000.0001) %MON forcing_qnet_min             =  -6.6991929610629E+02
(PID.TID 0000.0001) %MON forcing_qnet_mean            =   1.2119444789793E+01
(PID.TID 0000.0001) %MON forcing_qnet_sd              =   2.1566161049600E+02
(PID.TID 0000.0001) %MON forcing_qnet_del2            =   3.2852979682908E-01
(PID.TID 0000.0001) %MON forcing_qsw_max              =   0.0000000000000E+00
(PID.TID 0000.0001) %MON forcing_qsw_min              =  -1.0939261589350E+02
(PID.TID 0000.0001) %MON forcing_qsw_mean             =  -1.6979188302601E+01
(PID.TID 0000.0001) %MON forcing_qsw_sd               =   2.8945647425144E+01
(PID.TID 0000.0001) %MON forcing_qsw_del2             =   2.1595651042785E-02
(PID.TID 0000.0001) %MON forcing_empmr_max            =   8.2831492181867E-04
(PID.TID 0000.0001) %MON forcing_empmr_min            =  -6.1478141695261E-02
(PID.TID 0000.0001) %MON forcing_empmr_mean           =  -5.6342719353724E-06
(PID.TID 0000.0001) %MON forcing_empmr_sd             =   2.6256589323648E-04
(PID.TID 0000.0001) %MON forcing_empmr_del2           =   2.6156075430443E-06
(PID.TID 0000.0001) %MON forcing_fu_max               =   8.9082607626915E-01
(PID.TID 0000.0001) %MON forcing_fu_min               =  -7.9649710655212E-01
(PID.TID 0000.0001) %MON forcing_fu_mean              =  -1.2272943863733E-03
(PID.TID 0000.0001) %MON forcing_fu_sd                =   1.1097816898746E-01
(PID.TID 0000.0001) %MON forcing_fu_del2              =   1.6129919839460E-04
(PID.TID 0000.0001) %MON forcing_fv_max               =   7.7058598399162E-01
(PID.TID 0000.0001) %MON forcing_fv_min               =  -8.6433386802673E-01
(PID.TID 0000.0001) %MON forcing_fv_mean              =  -8.4657541892320E-03
(PID.TID 0000.0001) %MON forcing_fv_sd                =   1.1366608811985E-01
(PID.TID 0000.0001) %MON forcing_fv_del2              =   1.4691771519738E-04
(PID.TID 0000.0001) %MON trAdv_CFL_u_max              =   1.1388798234105E-02
(PID.TID 0000.0001) %MON trAdv_CFL_v_max              =   1.3814629539499E-02
(PID.TID 0000.0001) %MON trAdv_CFL_w_max              =   2.0679628373446E-02
(PID.TID 0000.0001) %MON advcfl_uvel_max              =   8.6976519518927E-03
(PID.TID 0000.0001) %MON advcfl_vvel_max              =   1.1341928282522E-02
(PID.TID 0000.0001) %MON advcfl_wvel_max              =   1.7903320122595E-02
(PID.TID 0000.0001) %MON advcfl_W_hf_max              =   1.8775908817731E-02
(PID.TID 0000.0001) %MON pe_b_mean                    =   5.1393653953040E-04
(PID.TID 0000.0001) %MON ke_max                       =   4.1704407229194E-01
(PID.TID 0000.0001) %MON ke_mean                      =   3.3867474774014E-04
(PID.TID 0000.0001) %MON ke_vol                       =   1.3349982120290E+18
(PID.TID 0000.0001) %MON vort_r_min                   =  -1.0195393425807E-05
(PID.TID 0000.0001) %MON vort_r_max                   =   1.1912643369611E-05
(PID.TID 0000.0001) %MON vort_a_mean                  =  -1.9727864647440E-05
(PID.TID 0000.0001) %MON vort_a_sd                    =   7.4542948503323E-05
(PID.TID 0000.0001) %MON vort_p_mean                  =  -2.1760528598652E-05
(PID.TID 0000.0001) %MON vort_p_sd                    =   9.7246134511541E-05
(PID.TID 0000.0001) %MON surfExpan_theta_mean         =  -1.2067972838897E-07
(PID.TID 0000.0001) %MON surfExpan_salt_mean          =   4.5175595673211E-08
(PID.TID 0000.0001) // =======================================================
(PID.TID 0000.0001) // End MONITOR dynamic field statistics
(PID.TID 0000.0001) // =======================================================
(PID.TID 0000.0001) // =======================================================
(PID.TID 0000.0001) // Begin MONITOR SEAICE statistics
(PID.TID 0000.0001) // =======================================================
(PID.TID 0000.0001) %MON seaice_tsnumber              =                   936
(PID.TID 0000.0001) %MON seaice_time_sec              =   8.4240000000000E+05
(PID.TID 0000.0001) %MON seaice_uice_max              =   4.0000000000000E-01
(PID.TID 0000.0001) %MON seaice_uice_min              =  -4.0000000000000E-01
(PID.TID 0000.0001) %MON seaice_uice_mean             =  -8.3054598624025E-03
(PID.TID 0000.0001) %MON seaice_uice_sd               =   1.9802383574176E-01
(PID.TID 0000.0001) %MON seaice_uice_del2             =   2.2931571122150E-04
(PID.TID 0000.0001) %MON seaice_vice_max              =   4.0000000000000E-01
(PID.TID 0000.0001) %MON seaice_vice_min              =  -4.0000000000000E-01
(PID.TID 0000.0001) %MON seaice_vice_mean             =  -2.1960776359499E-02
(PID.TID 0000.0001) %MON seaice_vice_sd               =   2.1302038025672E-01
(PID.TID 0000.0001) %MON seaice_vice_del2             =   2.3932563818061E-04
(PID.TID 0000.0001) %MON seaice_area_max              =   1.0000000000000E+00
(PID.TID 0000.0001) %MON seaice_area_min              =   0.0000000000000E+00
(PID.TID 0000.0001) %MON seaice_area_mean             =   6.5178874694205E-02
(PID.TID 0000.0001) %MON seaice_area_sd               =   2.2865464404271E-01
(PID.TID 0000.0001) %MON seaice_area_del2             =   3.8275679348534E-04
(PID.TID 0000.0001) %MON seaice_heff_max              =   2.4957725567394E+01
(PID.TID 0000.0001) %MON seaice_heff_min              =   0.0000000000000E+00
(PID.TID 0000.0001) %MON seaice_heff_mean             =   2.1196219616783E-01
(PID.TID 0000.0001) %MON seaice_heff_sd               =   1.0659684733893E+00
(PID.TID 0000.0001) %MON seaice_heff_del2             =   3.8268518614501E-03
(PID.TID 0000.0001) %MON seaice_hsnow_max             =   8.2435090311337E+00
(PID.TID 0000.0001) %MON seaice_hsnow_min             =   0.0000000000000E+00
(PID.TID 0000.0001) %MON seaice_hsnow_mean            =   2.3898210681682E-02
(PID.TID 0000.0001) %MON seaice_hsnow_sd              =   1.5589706572818E-01
(PID.TID 0000.0001) %MON seaice_hsnow_del2            =   1.2368023906057E-03
(PID.TID 0000.0001) // =======================================================
(PID.TID 0000.0001) // End MONITOR SEAICE statistics
(PID.TID 0000.0001) // =======================================================
 Computing Diagnostic #     86  oceQnet      Counter:       4   Parms: SM      U1      
 Computing Diagnostic #     87  oceQsw       Counter:       4   Parms: SM      U1      
 Computing Diagnostic #     84  oceFWflx     Counter:       4   Parms: SM      U1      
 Computing Diagnostic #     85  oceSflux     Counter:       4   Parms: SM      U1      
 Computing Diagnostic #     80  oceTAUX      Counter:       4   Parms: UU      U1      
           Vector  Mate for  oceTAUX      Diagnostic #     81  oceTAUY  exists 
 Computing Diagnostic #     81  oceTAUY      Counter:       4   Parms: VV      U1      
           Vector  Mate for  oceTAUY      Diagnostic #     80  oceTAUX  exists 
 Computing Diagnostic #     26  THETA        Counter:       4   Parms: SMR     MR      
 Computing Diagnostic #     27  SALT         Counter:       4   Parms: SMR     MR      
 Computing Diagnostic #     30  UVEL         Counter:       4   Parms: UUR     MR      
           Vector  Mate for  UVEL         Diagnostic #     31  VVEL     exists 
 Computing Diagnostic #     31  VVEL         Counter:       4   Parms: VVR     MR      
           Vector  Mate for  VVEL         Diagnostic #     30  UVEL     exists 
 Computing Diagnostic #    214  SIarea       Counter:       4   Parms: SM      M1      
 Computing Diagnostic #    217  SIheff       Counter:       4   Parms: SM      M1      
 Computing Diagnostic #    219  SIhsnow      Counter:       4   Parms: SM      M1      
 Computing Diagnostic #     83  sIceLoad     Counter:       4   Parms: SM      U1      
 Computing Diagnostic #    223  SIuice       Counter:       4   Parms: UU      M1      
           Vector  Mate for  SIuice       Diagnostic #    224  SIvice   exists 
 Computing Diagnostic #    224  SIvice       Counter:       4   Parms: VV      M1      
           Vector  Mate for  SIvice       Diagnostic #    223  SIuice   exists 
 Computing Diagnostic #    225  SItaux       Counter:       4   Parms: UU      U1      
           Vector  Mate for  SItaux       Diagnostic #    226  SItauy   exists 
 Computing Diagnostic #    226  SItauy       Counter:       4   Parms: VV      U1      
           Vector  Mate for  SItauy       Diagnostic #    225  SItaux   exists 
 Computing Diagnostic #    285  SIareaN      Counter:       4   Parms: SM      MX      
 Computing Diagnostic #    284  SIheffN      Counter:       4   Parms: SM      MX      
 Computing Diagnostic #    286  SIhsnowN     Counter:       4   Parms: SM      MX      
 Compute Stats, Diag. #    214  SIarea    vol(   0 ): 3.580E+14  Parms: SM      M1      
 Compute Stats, Diag. #    217  SIheff    vol(   0 ): 3.580E+14  Parms: SM      M1      
 Compute Stats, Diag. #    219  SIhsnow   vol(   0 ): 3.580E+14  Parms: SM      M1      
 Compute Stats, Diag. #     83  sIceLoad  vol(   0 ): 3.580E+14  Parms: SM      U1      
 Compute Stats, Diag. #    223  SIuice    vol(   0 ): 3.513E+14  Parms: UU      M1      
 Compute Stats, Diag. #    224  SIvice    vol(   0 ): 3.508E+14  Parms: VV      M1      
 Compute Stats, Diag. #    225  SItaux    vol(   0 ): 3.513E+14  Parms: UU      U1      
 Compute Stats, Diag. #    226  SItauy    vol(   0 ): 3.508E+14  Parms: VV      U1      
 cg2d: Sum(rhs),rhsMax =  -2.98892208938111E+01  2.84625995059178E-01
 Compute Stats, Diag. #    214  SIarea    vol(   0 ): 3.580E+14  Parms: SM      M1      
 Compute Stats, Diag. #    217  SIheff    vol(   0 ): 3.580E+14  Parms: SM      M1      
 Compute Stats, Diag. #    219  SIhsnow   vol(   0 ): 3.580E+14  Parms: SM      M1      
 Compute Stats, Diag. #     83  sIceLoad  vol(   0 ): 3.580E+14  Parms: SM      U1      
 Compute Stats, Diag. #    223  SIuice    vol(   0 ): 3.513E+14  Parms: UU      M1      
 Compute Stats, Diag. #    224  SIvice    vol(   0 ): 3.508E+14  Parms: VV      M1      
 Compute Stats, Diag. #    225  SItaux    vol(   0 ): 3.513E+14  Parms: UU      U1      
 Compute Stats, Diag. #    226  SItauy    vol(   0 ): 3.508E+14  Parms: VV      U1      
 cg2d: Sum(rhs),rhsMax =  -3.00407547147886E+01  2.84604535254270E-01
 Compute Stats, Diag. #    214  SIarea    vol(   0 ): 3.580E+14  Parms: SM      M1      
 Compute Stats, Diag. #    217  SIheff    vol(   0 ): 3.580E+14  Parms: SM      M1      
 Compute Stats, Diag. #    219  SIhsnow   vol(   0 ): 3.580E+14  Parms: SM      M1      
 Compute Stats, Diag. #     83  sIceLoad  vol(   0 ): 3.580E+14  Parms: SM      U1      
 Compute Stats, Diag. #    223  SIuice    vol(   0 ): 3.513E+14  Parms: UU      M1      
 Compute Stats, Diag. #    224  SIvice    vol(   0 ): 3.508E+14  Parms: VV      M1      
 Compute Stats, Diag. #    225  SItaux    vol(   0 ): 3.513E+14  Parms: UU      U1      
 Compute Stats, Diag. #    226  SItauy    vol(   0 ): 3.508E+14  Parms: VV      U1      
 cg2d: Sum(rhs),rhsMax =  -3.01919525492745E+01  2.84588090039359E-01
 Compute Stats, Diag. #    214  SIarea    vol(   0 ): 3.580E+14  Parms: SM      M1      
 Compute Stats, Diag. #    217  SIheff    vol(   0 ): 3.580E+14  Parms: SM      M1      
 Compute Stats, Diag. #    219  SIhsnow   vol(   0 ): 3.580E+14  Parms: SM      M1      
 Compute Stats, Diag. #     83  sIceLoad  vol(   0 ): 3.580E+14  Parms: SM      U1      
 Compute Stats, Diag. #    223  SIuice    vol(   0 ): 3.513E+14  Parms: UU      M1      
 Compute Stats, Diag. #    224  SIvice    vol(   0 ): 3.508E+14  Parms: VV      M1      
 Compute Stats, Diag. #    225  SItaux    vol(   0 ): 3.513E+14  Parms: UU      U1      
 Compute Stats, Diag. #    226  SItauy    vol(   0 ): 3.508E+14  Parms: VV      U1      
 cg2d: Sum(rhs),rhsMax =  -3.03439273657659E+01  2.84576608358268E-01
 Computing Diagnostic #     86  oceQnet      Counter:       4   Parms: SM      U1      
 Computing Diagnostic #     87  oceQsw       Counter:       4   Parms: SM      U1      
 Computing Diagnostic #     84  oceFWflx     Counter:       4   Parms: SM      U1      
 Computing Diagnostic #     85  oceSflux     Counter:       4   Parms: SM      U1      
 Computing Diagnostic #     80  oceTAUX      Counter:       4   Parms: UU      U1      
           Vector  Mate for  oceTAUX      Diagnostic #     81  oceTAUY  exists 
 Computing Diagnostic #     81  oceTAUY      Counter:       4   Parms: VV      U1      
           Vector  Mate for  oceTAUY      Diagnostic #     80  oceTAUX  exists 
 Computing Diagnostic #     26  THETA        Counter:       4   Parms: SMR     MR      
 Computing Diagnostic #     27  SALT         Counter:       4   Parms: SMR     MR      
 Computing Diagnostic #     30  UVEL         Counter:       4   Parms: UUR     MR      
           Vector  Mate for  UVEL         Diagnostic #     31  VVEL     exists 
 Computing Diagnostic #     31  VVEL         Counter:       4   Parms: VVR     MR      
           Vector  Mate for  VVEL         Diagnostic #     30  UVEL     exists 
 Computing Diagnostic #    214  SIarea       Counter:       4   Parms: SM      M1      
 Computing Diagnostic #    217  SIheff       Counter:       4   Parms: SM      M1      
 Computing Diagnostic #    219  SIhsnow      Counter:       4   Parms: SM      M1      
 Computing Diagnostic #     83  sIceLoad     Counter:       4   Parms: SM      U1      
 Computing Diagnostic #    223  SIuice       Counter:       4   Parms: UU      M1      
           Vector  Mate for  SIuice       Diagnostic #    224  SIvice   exists 
 Computing Diagnostic #    224  SIvice       Counter:       4   Parms: VV      M1      
           Vector  Mate for  SIvice       Diagnostic #    223  SIuice   exists 
 Computing Diagnostic #    225  SItaux       Counter:       4   Parms: UU      U1      
           Vector  Mate for  SItaux       Diagnostic #    226  SItauy   exists 
 Computing Diagnostic #    226  SItauy       Counter:       4   Parms: VV      U1      
           Vector  Mate for  SItauy       Diagnostic #    225  SItaux   exists 
 Computing Diagnostic #    285  SIareaN      Counter:       4   Parms: SM      MX      
 Computing Diagnostic #    284  SIheffN      Counter:       4   Parms: SM      MX      
 Computing Diagnostic #    286  SIhsnowN     Counter:       4   Parms: SM      MX      
 Compute Stats, Diag. #    214  SIarea    vol(   0 ): 3.580E+14  Parms: SM      M1      
 Compute Stats, Diag. #    217  SIheff    vol(   0 ): 3.580E+14  Parms: SM      M1      
 Compute Stats, Diag. #    219  SIhsnow   vol(   0 ): 3.580E+14  Parms: SM      M1      
 Compute Stats, Diag. #     83  sIceLoad  vol(   0 ): 3.580E+14  Parms: SM      U1      
 Compute Stats, Diag. #    223  SIuice    vol(   0 ): 3.513E+14  Parms: UU      M1      
 Compute Stats, Diag. #    224  SIvice    vol(   0 ): 3.508E+14  Parms: VV      M1      
 Compute Stats, Diag. #    225  SItaux    vol(   0 ): 3.513E+14  Parms: UU      U1      
 Compute Stats, Diag. #    226  SItauy    vol(   0 ): 3.508E+14  Parms: VV      U1      
 cg2d: Sum(rhs),rhsMax =  -3.05039035498452E+01  2.84569804063959E-01
 Compute Stats, Diag. #    214  SIarea    vol(   0 ): 3.580E+14  Parms: SM      M1      
 Compute Stats, Diag. #    217  SIheff    vol(   0 ): 3.580E+14  Parms: SM      M1      
 Compute Stats, Diag. #    219  SIhsnow   vol(   0 ): 3.580E+14  Parms: SM      M1      
 Compute Stats, Diag. #     83  sIceLoad  vol(   0 ): 3.580E+14  Parms: SM      U1      
 Compute Stats, Diag. #    223  SIuice    vol(   0 ): 3.513E+14  Parms: UU      M1      
 Compute Stats, Diag. #    224  SIvice    vol(   0 ): 3.508E+14  Parms: VV      M1      
 Compute Stats, Diag. #    225  SItaux    vol(   0 ): 3.513E+14  Parms: UU      U1      
 Compute Stats, Diag. #    226  SItauy    vol(   0 ): 3.508E+14  Parms: VV      U1      
 cg2d: Sum(rhs),rhsMax =  -3.06686335481684E+01  2.84567542289833E-01
 Compute Stats, Diag. #    214  SIarea    vol(   0 ): 3.580E+14  Parms: SM      M1      
 Compute Stats, Diag. #    217  SIheff    vol(   0 ): 3.580E+14  Parms: SM      M1      
 Compute Stats, Diag. #    219  SIhsnow   vol(   0 ): 3.580E+14  Parms: SM      M1      
 Compute Stats, Diag. #     83  sIceLoad  vol(   0 ): 3.580E+14  Parms: SM      U1      
 Compute Stats, Diag. #    223  SIuice    vol(   0 ): 3.513E+14  Parms: UU      M1      
 Compute Stats, Diag. #    224  SIvice    vol(   0 ): 3.508E+14  Parms: VV      M1      
 Compute Stats, Diag. #    225  SItaux    vol(   0 ): 3.513E+14  Parms: UU      U1      
 Compute Stats, Diag. #    226  SItauy    vol(   0 ): 3.508E+14  Parms: VV      U1      
 cg2d: Sum(rhs),rhsMax =  -3.08386896011027E+01  2.84569903641779E-01
 Compute Stats, Diag. #    214  SIarea    vol(   0 ): 3.580E+14  Parms: SM      M1      
 Compute Stats, Diag. #    217  SIheff    vol(   0 ): 3.580E+14  Parms: SM      M1      
 Compute Stats, Diag. #    219  SIhsnow   vol(   0 ): 3.580E+14  Parms: SM      M1      
 Compute Stats, Diag. #     83  sIceLoad  vol(   0 ): 3.580E+14  Parms: SM      U1      
 Compute Stats, Diag. #    223  SIuice    vol(   0 ): 3.513E+14  Parms: UU      M1      
 Compute Stats, Diag. #    224  SIvice    vol(   0 ): 3.508E+14  Parms: VV      M1      
 Compute Stats, Diag. #    225  SItaux    vol(   0 ): 3.513E+14  Parms: UU      U1      
 Compute Stats, Diag. #    226  SItauy    vol(   0 ): 3.508E+14  Parms: VV      U1      
 cg2d: Sum(rhs),rhsMax =  -3.09959689517272E+01  2.84576167320010E-01
(PID.TID 0000.0001)      cg2d_init_res =   4.48608657198203E-02
(PID.TID 0000.0001)      cg2d_iters(min,last) =      -1      24
(PID.TID 0000.0001)      cg2d_last_res =   2.79769826028437E-05
(PID.TID 0000.0001) // =======================================================
(PID.TID 0000.0001) // Begin MONITOR dynamic field statistics
(PID.TID 0000.0001) // =======================================================
(PID.TID 0000.0001) %MON time_tsnumber                =                   944
(PID.TID 0000.0001) %MON time_secondsf                =   8.4960000000000E+05
(PID.TID 0000.0001) %MON dynstat_eta_max              =   1.0179114482500E+00
(PID.TID 0000.0001) %MON dynstat_eta_min              =  -1.8166146144525E+00
(PID.TID 0000.0001) %MON dynstat_eta_mean             =   9.8050149249948E-04
(PID.TID 0000.0001) %MON dynstat_eta_sd               =   6.2454868017631E-01
(PID.TID 0000.0001) %MON dynstat_eta_del2             =   5.0625623955199E-05
(PID.TID 0000.0001) %MON dynstat_uvel_max             =   7.0329794530181E-01
(PID.TID 0000.0001) %MON dynstat_uvel_min             =  -8.1234629047556E-01
(PID.TID 0000.0001) %MON dynstat_uvel_mean            =   1.2586453158612E-03
(PID.TID 0000.0001) %MON dynstat_uvel_sd              =   1.7992487386787E-02
(PID.TID 0000.0001) %MON dynstat_uvel_del2            =   7.1529196789001E-06
(PID.TID 0000.0001) %MON dynstat_vvel_max             =   5.6998283392598E-01
(PID.TID 0000.0001) %MON dynstat_vvel_min             =  -9.0049075959281E-01
(PID.TID 0000.0001) %MON dynstat_vvel_mean            =   9.9915522750166E-04
(PID.TID 0000.0001) %MON dynstat_vvel_sd              =   1.9352895727667E-02
(PID.TID 0000.0001) %MON dynstat_vvel_del2            =   7.2271851081368E-06
(PID.TID 0000.0001) %MON dynstat_wvel_max             =   2.8589249775256E-04
(PID.TID 0000.0001) %MON dynstat_wvel_min             =  -7.5723177007160E-04
(PID.TID 0000.0001) %MON dynstat_wvel_mean            =  -4.6653868255896E-09
(PID.TID 0000.0001) %MON dynstat_wvel_sd              =   1.7754952968590E-05
(PID.TID 0000.0001) %MON dynstat_wvel_del2            =   1.3874882788048E-08
(PID.TID 0000.0001) %MON dynstat_theta_max            =   3.1858353034253E+01
(PID.TID 0000.0001) %MON dynstat_theta_min            =  -2.0397262420172E+00
(PID.TID 0000.0001) %MON dynstat_theta_mean           =   3.5901613294692E+00
(PID.TID 0000.0001) %MON dynstat_theta_sd             =   4.4366408212231E+00
(PID.TID 0000.0001) %MON dynstat_theta_del2           =   9.0816583163243E-05
(PID.TID 0000.0001) %MON dynstat_salt_max             =   4.0711542897793E+01
(PID.TID 0000.0001) %MON dynstat_salt_min             =   5.6742059980009E+00
(PID.TID 0000.0001) %MON dynstat_salt_mean            =   3.4725563086138E+01
(PID.TID 0000.0001) %MON dynstat_salt_sd              =   3.7709311045464E-01
(PID.TID 0000.0001) %MON dynstat_salt_del2            =   3.5171079258211E-05
(PID.TID 0000.0001) %MON dynstat_sst_max              =   3.1858337313805E+01
(PID.TID 0000.0001) %MON dynstat_sst_min              =  -1.8121353885810E+00
(PID.TID 0000.0001) %MON dynstat_sst_mean             =   1.8455765578969E+01
(PID.TID 0000.0001) %MON dynstat_sst_sd               =   1.0275593420967E+01
(PID.TID 0000.0001) %MON dynstat_sst_del2             =   7.9385347566329E-04
(PID.TID 0000.0001) %MON dynstat_sss_max              =   3.9099017771702E+01
(PID.TID 0000.0001) %MON dynstat_sss_min              =   5.6742059980009E+00
(PID.TID 0000.0001) %MON dynstat_sss_mean             =   3.4700649674292E+01
(PID.TID 0000.0001) %MON dynstat_sss_sd               =   1.1789879307731E+00
(PID.TID 0000.0001) %MON dynstat_sss_del2             =   1.0703312699885E-03
(PID.TID 0000.0001) %MON forcing_qnet_max             =   1.2697558593750E+03
(PID.TID 0000.0001) %MON forcing_qnet_min             =  -7.8897989034811E+02
(PID.TID 0000.0001) %MON forcing_qnet_mean            =   6.8343298130583E-01
(PID.TID 0000.0001) %MON forcing_qnet_sd              =   2.0485958184910E+02
(PID.TID 0000.0001) %MON forcing_qnet_del2            =   3.1951279882540E-01
(PID.TID 0000.0001) %MON forcing_qsw_max              =   0.0000000000000E+00
(PID.TID 0000.0001) %MON forcing_qsw_min              =  -1.0802490415570E+02
(PID.TID 0000.0001) %MON forcing_qsw_mean             =  -1.8492480280947E+01
(PID.TID 0000.0001) %MON forcing_qsw_sd               =   2.7867510297212E+01
(PID.TID 0000.0001) %MON forcing_qsw_del2             =   2.1336529903026E-02
(PID.TID 0000.0001) %MON forcing_empmr_max            =   8.1488717114553E-04
(PID.TID 0000.0001) %MON forcing_empmr_min            =  -7.1886695921421E-02
(PID.TID 0000.0001) %MON forcing_empmr_mean           =  -5.6883670824983E-06
(PID.TID 0000.0001) %MON forcing_empmr_sd             =   2.9970663150102E-04
(PID.TID 0000.0001) %MON forcing_empmr_del2           =   3.0454157389663E-06
(PID.TID 0000.0001) %MON forcing_fu_max               =   9.2687997221947E-01
(PID.TID 0000.0001) %MON forcing_fu_min               =  -8.9485290646553E-01
(PID.TID 0000.0001) %MON forcing_fu_mean              =  -1.2196034790718E-03
(PID.TID 0000.0001) %MON forcing_fu_sd                =   1.1034954562358E-01
(PID.TID 0000.0001) %MON forcing_fu_del2              =   1.6475927807959E-04
(PID.TID 0000.0001) %MON forcing_fv_max               =   7.7759197354316E-01
(PID.TID 0000.0001) %MON forcing_fv_min               =  -8.5957989096642E-01
(PID.TID 0000.0001) %MON forcing_fv_mean              =  -8.4490027347769E-03
(PID.TID 0000.0001) %MON forcing_fv_sd                =   1.1370153918744E-01
(PID.TID 0000.0001) %MON forcing_fv_del2              =   1.4673260396256E-04
(PID.TID 0000.0001) %MON trAdv_CFL_u_max              =   1.1356309306353E-02
(PID.TID 0000.0001) %MON trAdv_CFL_v_max              =   1.3827077966211E-02
(PID.TID 0000.0001) %MON trAdv_CFL_w_max              =   2.0934693009582E-02
(PID.TID 0000.0001) %MON advcfl_uvel_max              =   8.8404059621383E-03
(PID.TID 0000.0001) %MON advcfl_vvel_max              =   1.1456809205945E-02
(PID.TID 0000.0001) %MON advcfl_wvel_max              =   1.8107756522949E-02
(PID.TID 0000.0001) %MON advcfl_W_hf_max              =   1.8990302593704E-02
(PID.TID 0000.0001) %MON pe_b_mean                    =   5.1308796124099E-04
(PID.TID 0000.0001) %MON ke_max                       =   4.2583593779864E-01
(PID.TID 0000.0001) %MON ke_mean                      =   3.3794517378975E-04
(PID.TID 0000.0001) %MON ke_vol                       =   1.3349982261912E+18
(PID.TID 0000.0001) %MON vort_r_min                   =  -9.5826698833163E-06
(PID.TID 0000.0001) %MON vort_r_max                   =   1.1691265801952E-05
(PID.TID 0000.0001) %MON vort_a_mean                  =  -1.9727864647440E-05
(PID.TID 0000.0001) %MON vort_a_sd                    =   7.4542949667288E-05
(PID.TID 0000.0001) %MON vort_p_mean                  =  -2.1760528347840E-05
(PID.TID 0000.0001) %MON vort_p_sd                    =   9.7246041636719E-05
(PID.TID 0000.0001) %MON surfExpan_theta_mean         =  -1.1010555269243E-07
(PID.TID 0000.0001) %MON surfExpan_salt_mean          =   5.3303243298362E-08
(PID.TID 0000.0001) // =======================================================
(PID.TID 0000.0001) // End MONITOR dynamic field statistics
(PID.TID 0000.0001) // =======================================================
(PID.TID 0000.0001) // =======================================================
(PID.TID 0000.0001) // Begin MONITOR SEAICE statistics
(PID.TID 0000.0001) // =======================================================
(PID.TID 0000.0001) %MON seaice_tsnumber              =                   944
(PID.TID 0000.0001) %MON seaice_time_sec              =   8.4960000000000E+05
(PID.TID 0000.0001) %MON seaice_uice_max              =   4.0000000000000E-01
(PID.TID 0000.0001) %MON seaice_uice_min              =  -4.0000000000000E-01
(PID.TID 0000.0001) %MON seaice_uice_mean             =  -8.3054598624025E-03
(PID.TID 0000.0001) %MON seaice_uice_sd               =   1.9802383574176E-01
(PID.TID 0000.0001) %MON seaice_uice_del2             =   2.2931571122150E-04
(PID.TID 0000.0001) %MON seaice_vice_max              =   4.0000000000000E-01
(PID.TID 0000.0001) %MON seaice_vice_min              =  -4.0000000000000E-01
(PID.TID 0000.0001) %MON seaice_vice_mean             =  -2.1960776359499E-02
(PID.TID 0000.0001) %MON seaice_vice_sd               =   2.1302038025672E-01
(PID.TID 0000.0001) %MON seaice_vice_del2             =   2.3932563818061E-04
(PID.TID 0000.0001) %MON seaice_area_max              =   1.0000000000000E+00
(PID.TID 0000.0001) %MON seaice_area_min              =   0.0000000000000E+00
(PID.TID 0000.0001) %MON seaice_area_mean             =   6.5156869567752E-02
(PID.TID 0000.0001) %MON seaice_area_sd               =   2.2861934411304E-01
(PID.TID 0000.0001) %MON seaice_area_del2             =   3.8242491909181E-04
(PID.TID 0000.0001) %MON seaice_heff_max              =   2.4955438987119E+01
(PID.TID 0000.0001) %MON seaice_heff_min              =   0.0000000000000E+00
(PID.TID 0000.0001) %MON seaice_heff_mean             =   2.1193757406821E-01
(PID.TID 0000.0001) %MON seaice_heff_sd               =   1.0659452802232E+00
(PID.TID 0000.0001) %MON seaice_heff_del2             =   3.8261986654167E-03
(PID.TID 0000.0001) %MON seaice_hsnow_max             =   8.2427633644547E+00
(PID.TID 0000.0001) %MON seaice_hsnow_min             =   0.0000000000000E+00
(PID.TID 0000.0001) %MON seaice_hsnow_mean            =   2.3882371828953E-02
(PID.TID 0000.0001) %MON seaice_hsnow_sd              =   1.5587613542676E-01
(PID.TID 0000.0001) %MON seaice_hsnow_del2            =   1.2366752220595E-03
(PID.TID 0000.0001) // =======================================================
(PID.TID 0000.0001) // End MONITOR SEAICE statistics
(PID.TID 0000.0001) // =======================================================
 Computing Diagnostic #     86  oceQnet      Counter:       4   Parms: SM      U1      
 Computing Diagnostic #     87  oceQsw       Counter:       4   Parms: SM      U1      
 Computing Diagnostic #     84  oceFWflx     Counter:       4   Parms: SM      U1      
 Computing Diagnostic #     85  oceSflux     Counter:       4   Parms: SM      U1      
 Computing Diagnostic #     80  oceTAUX      Counter:       4   Parms: UU      U1      
           Vector  Mate for  oceTAUX      Diagnostic #     81  oceTAUY  exists 
 Computing Diagnostic #     81  oceTAUY      Counter:       4   Parms: VV      U1      
           Vector  Mate for  oceTAUY      Diagnostic #     80  oceTAUX  exists 
 Computing Diagnostic #     26  THETA        Counter:       4   Parms: SMR     MR      
 Computing Diagnostic #     27  SALT         Counter:       4   Parms: SMR     MR      
 Computing Diagnostic #     30  UVEL         Counter:       4   Parms: UUR     MR      
           Vector  Mate for  UVEL         Diagnostic #     31  VVEL     exists 
 Computing Diagnostic #     31  VVEL         Counter:       4   Parms: VVR     MR      
           Vector  Mate for  VVEL         Diagnostic #     30  UVEL     exists 
 Computing Diagnostic #    214  SIarea       Counter:       4   Parms: SM      M1      
 Computing Diagnostic #    217  SIheff       Counter:       4   Parms: SM      M1      
 Computing Diagnostic #    219  SIhsnow      Counter:       4   Parms: SM      M1      
 Computing Diagnostic #     83  sIceLoad     Counter:       4   Parms: SM      U1      
 Computing Diagnostic #    223  SIuice       Counter:       4   Parms: UU      M1      
           Vector  Mate for  SIuice       Diagnostic #    224  SIvice   exists 
 Computing Diagnostic #    224  SIvice       Counter:       4   Parms: VV      M1      
           Vector  Mate for  SIvice       Diagnostic #    223  SIuice   exists 
 Computing Diagnostic #    225  SItaux       Counter:       4   Parms: UU      U1      
           Vector  Mate for  SItaux       Diagnostic #    226  SItauy   exists 
 Computing Diagnostic #    226  SItauy       Counter:       4   Parms: VV      U1      
           Vector  Mate for  SItauy       Diagnostic #    225  SItaux   exists 
 Computing Diagnostic #    285  SIareaN      Counter:       4   Parms: SM      MX      
 Computing Diagnostic #    284  SIheffN      Counter:       4   Parms: SM      MX      
 Computing Diagnostic #    286  SIhsnowN     Counter:       4   Parms: SM      MX      
 Compute Stats, Diag. #    214  SIarea    vol(   0 ): 3.580E+14  Parms: SM      M1      
 Compute Stats, Diag. #    217  SIheff    vol(   0 ): 3.580E+14  Parms: SM      M1      
 Compute Stats, Diag. #    219  SIhsnow   vol(   0 ): 3.580E+14  Parms: SM      M1      
 Compute Stats, Diag. #     83  sIceLoad  vol(   0 ): 3.580E+14  Parms: SM      U1      
 Compute Stats, Diag. #    223  SIuice    vol(   0 ): 3.513E+14  Parms: UU      M1      
 Compute Stats, Diag. #    224  SIvice    vol(   0 ): 3.508E+14  Parms: VV      M1      
 Compute Stats, Diag. #    225  SItaux    vol(   0 ): 3.513E+14  Parms: UU      U1      
 Compute Stats, Diag. #    226  SItauy    vol(   0 ): 3.508E+14  Parms: VV      U1      
 cg2d: Sum(rhs),rhsMax =  -3.11486560568315E+01  2.84585844542781E-01
 Compute Stats, Diag. #    214  SIarea    vol(   0 ): 3.580E+14  Parms: SM      M1      
 Compute Stats, Diag. #    217  SIheff    vol(   0 ): 3.580E+14  Parms: SM      M1      
 Compute Stats, Diag. #    219  SIhsnow   vol(   0 ): 3.580E+14  Parms: SM      M1      
 Compute Stats, Diag. #     83  sIceLoad  vol(   0 ): 3.580E+14  Parms: SM      U1      
 Compute Stats, Diag. #    223  SIuice    vol(   0 ): 3.513E+14  Parms: UU      M1      
 Compute Stats, Diag. #    224  SIvice    vol(   0 ): 3.508E+14  Parms: VV      M1      
 Compute Stats, Diag. #    225  SItaux    vol(   0 ): 3.513E+14  Parms: UU      U1      
 Compute Stats, Diag. #    226  SItauy    vol(   0 ): 3.508E+14  Parms: VV      U1      
 cg2d: Sum(rhs),rhsMax =  -3.13040124405497E+01  2.84598709839395E-01
 Compute Stats, Diag. #    214  SIarea    vol(   0 ): 3.580E+14  Parms: SM      M1      
 Compute Stats, Diag. #    217  SIheff    vol(   0 ): 3.580E+14  Parms: SM      M1      
 Compute Stats, Diag. #    219  SIhsnow   vol(   0 ): 3.580E+14  Parms: SM      M1      
 Compute Stats, Diag. #     83  sIceLoad  vol(   0 ): 3.580E+14  Parms: SM      U1      
 Compute Stats, Diag. #    223  SIuice    vol(   0 ): 3.513E+14  Parms: UU      M1      
 Compute Stats, Diag. #    224  SIvice    vol(   0 ): 3.508E+14  Parms: VV      M1      
 Compute Stats, Diag. #    225  SItaux    vol(   0 ): 3.513E+14  Parms: UU      U1      
 Compute Stats, Diag. #    226  SItauy    vol(   0 ): 3.508E+14  Parms: VV      U1      
 cg2d: Sum(rhs),rhsMax =  -3.14509525623260E+01  2.84614181851954E-01
 Compute Stats, Diag. #    214  SIarea    vol(   0 ): 3.580E+14  Parms: SM      M1      
 Compute Stats, Diag. #    217  SIheff    vol(   0 ): 3.580E+14  Parms: SM      M1      
 Compute Stats, Diag. #    219  SIhsnow   vol(   0 ): 3.580E+14  Parms: SM      M1      
 Compute Stats, Diag. #     83  sIceLoad  vol(   0 ): 3.580E+14  Parms: SM      U1      
 Compute Stats, Diag. #    223  SIuice    vol(   0 ): 3.513E+14  Parms: UU      M1      
 Compute Stats, Diag. #    224  SIvice    vol(   0 ): 3.508E+14  Parms: VV      M1      
 Compute Stats, Diag. #    225  SItaux    vol(   0 ): 3.513E+14  Parms: UU      U1      
 Compute Stats, Diag. #    226  SItauy    vol(   0 ): 3.508E+14  Parms: VV      U1      
 cg2d: Sum(rhs),rhsMax =  -3.15965197452316E+01  2.84631389085221E-01
 Computing Diagnostic #     86  oceQnet      Counter:       4   Parms: SM      U1      
 Computing Diagnostic #     87  oceQsw       Counter:       4   Parms: SM      U1      
 Computing Diagnostic #     84  oceFWflx     Counter:       4   Parms: SM      U1      
 Computing Diagnostic #     85  oceSflux     Counter:       4   Parms: SM      U1      
 Computing Diagnostic #     80  oceTAUX      Counter:       4   Parms: UU      U1      
           Vector  Mate for  oceTAUX      Diagnostic #     81  oceTAUY  exists 
 Computing Diagnostic #     81  oceTAUY      Counter:       4   Parms: VV      U1      
           Vector  Mate for  oceTAUY      Diagnostic #     80  oceTAUX  exists 
 Computing Diagnostic #     26  THETA        Counter:       4   Parms: SMR     MR      
 Computing Diagnostic #     27  SALT         Counter:       4   Parms: SMR     MR      
 Computing Diagnostic #     30  UVEL         Counter:       4   Parms: UUR     MR      
           Vector  Mate for  UVEL         Diagnostic #     31  VVEL     exists 
 Computing Diagnostic #     31  VVEL         Counter:       4   Parms: VVR     MR      
           Vector  Mate for  VVEL         Diagnostic #     30  UVEL     exists 
 Computing Diagnostic #    214  SIarea       Counter:       4   Parms: SM      M1      
 Computing Diagnostic #    217  SIheff       Counter:       4   Parms: SM      M1      
 Computing Diagnostic #    219  SIhsnow      Counter:       4   Parms: SM      M1      
 Computing Diagnostic #     83  sIceLoad     Counter:       4   Parms: SM      U1      
 Computing Diagnostic #    223  SIuice       Counter:       4   Parms: UU      M1      
           Vector  Mate for  SIuice       Diagnostic #    224  SIvice   exists 
 Computing Diagnostic #    224  SIvice       Counter:       4   Parms: VV      M1      
           Vector  Mate for  SIvice       Diagnostic #    223  SIuice   exists 
 Computing Diagnostic #    225  SItaux       Counter:       4   Parms: UU      U1      
           Vector  Mate for  SItaux       Diagnostic #    226  SItauy   exists 
 Computing Diagnostic #    226  SItauy       Counter:       4   Parms: VV      U1      
           Vector  Mate for  SItauy       Diagnostic #    225  SItaux   exists 
 Computing Diagnostic #    285  SIareaN      Counter:       4   Parms: SM      MX      
 Computing Diagnostic #    284  SIheffN      Counter:       4   Parms: SM      MX      
 Computing Diagnostic #    286  SIhsnowN     Counter:       4   Parms: SM      MX      
 Compute Stats, Diag. #    214  SIarea    vol(   0 ): 3.580E+14  Parms: SM      M1      
 Compute Stats, Diag. #    217  SIheff    vol(   0 ): 3.580E+14  Parms: SM      M1      
 Compute Stats, Diag. #    219  SIhsnow   vol(   0 ): 3.580E+14  Parms: SM      M1      
 Compute Stats, Diag. #     83  sIceLoad  vol(   0 ): 3.580E+14  Parms: SM      U1      
 Compute Stats, Diag. #    223  SIuice    vol(   0 ): 3.513E+14  Parms: UU      M1      
 Compute Stats, Diag. #    224  SIvice    vol(   0 ): 3.508E+14  Parms: VV      M1      
 Compute Stats, Diag. #    225  SItaux    vol(   0 ): 3.513E+14  Parms: UU      U1      
 Compute Stats, Diag. #    226  SItauy    vol(   0 ): 3.508E+14  Parms: VV      U1      
 cg2d: Sum(rhs),rhsMax =  -3.17401637851865E+01  2.84649937235254E-01
 Compute Stats, Diag. #    214  SIarea    vol(   0 ): 3.580E+14  Parms: SM      M1      
 Compute Stats, Diag. #    217  SIheff    vol(   0 ): 3.580E+14  Parms: SM      M1      
 Compute Stats, Diag. #    219  SIhsnow   vol(   0 ): 3.580E+14  Parms: SM      M1      
 Compute Stats, Diag. #     83  sIceLoad  vol(   0 ): 3.580E+14  Parms: SM      U1      
 Compute Stats, Diag. #    223  SIuice    vol(   0 ): 3.513E+14  Parms: UU      M1      
 Compute Stats, Diag. #    224  SIvice    vol(   0 ): 3.508E+14  Parms: VV      M1      
 Compute Stats, Diag. #    225  SItaux    vol(   0 ): 3.513E+14  Parms: UU      U1      
 Compute Stats, Diag. #    226  SItauy    vol(   0 ): 3.508E+14  Parms: VV      U1      
 cg2d: Sum(rhs),rhsMax =  -3.18770904761620E+01  2.84669173790771E-01
 Compute Stats, Diag. #    214  SIarea    vol(   0 ): 3.580E+14  Parms: SM      M1      
 Compute Stats, Diag. #    217  SIheff    vol(   0 ): 3.580E+14  Parms: SM      M1      
 Compute Stats, Diag. #    219  SIhsnow   vol(   0 ): 3.580E+14  Parms: SM      M1      
 Compute Stats, Diag. #     83  sIceLoad  vol(   0 ): 3.580E+14  Parms: SM      U1      
 Compute Stats, Diag. #    223  SIuice    vol(   0 ): 3.513E+14  Parms: UU      M1      
 Compute Stats, Diag. #    224  SIvice    vol(   0 ): 3.508E+14  Parms: VV      M1      
 Compute Stats, Diag. #    225  SItaux    vol(   0 ): 3.513E+14  Parms: UU      U1      
 Compute Stats, Diag. #    226  SItauy    vol(   0 ): 3.508E+14  Parms: VV      U1      
 cg2d: Sum(rhs),rhsMax =  -3.20219768583375E+01  2.84688479865630E-01
 Compute Stats, Diag. #    214  SIarea    vol(   0 ): 3.580E+14  Parms: SM      M1      
 Compute Stats, Diag. #    217  SIheff    vol(   0 ): 3.580E+14  Parms: SM      M1      
 Compute Stats, Diag. #    219  SIhsnow   vol(   0 ): 3.580E+14  Parms: SM      M1      
 Compute Stats, Diag. #     83  sIceLoad  vol(   0 ): 3.580E+14  Parms: SM      U1      
 Compute Stats, Diag. #    223  SIuice    vol(   0 ): 3.513E+14  Parms: UU      M1      
 Compute Stats, Diag. #    224  SIvice    vol(   0 ): 3.508E+14  Parms: VV      M1      
 Compute Stats, Diag. #    225  SItaux    vol(   0 ): 3.513E+14  Parms: UU      U1      
 Compute Stats, Diag. #    226  SItauy    vol(   0 ): 3.508E+14  Parms: VV      U1      
 cg2d: Sum(rhs),rhsMax =  -3.21631658119680E+01  2.84707140918859E-01
(PID.TID 0000.0001)      cg2d_init_res =   4.63448293703505E-02
(PID.TID 0000.0001)      cg2d_iters(min,last) =      -1      24
(PID.TID 0000.0001)      cg2d_last_res =   2.76175866247563E-05
(PID.TID 0000.0001) // =======================================================
(PID.TID 0000.0001) // Begin MONITOR dynamic field statistics
(PID.TID 0000.0001) // =======================================================
(PID.TID 0000.0001) %MON time_tsnumber                =                   952
(PID.TID 0000.0001) %MON time_secondsf                =   8.5680000000000E+05
(PID.TID 0000.0001) %MON dynstat_eta_max              =   1.0171752682354E+00
(PID.TID 0000.0001) %MON dynstat_eta_min              =  -1.8152489035653E+00
(PID.TID 0000.0001) %MON dynstat_eta_mean             =   1.0174236569684E-03
(PID.TID 0000.0001) %MON dynstat_eta_sd               =   6.2410231928224E-01
(PID.TID 0000.0001) %MON dynstat_eta_del2             =   5.0610545044732E-05
(PID.TID 0000.0001) %MON dynstat_uvel_max             =   7.0387035990480E-01
(PID.TID 0000.0001) %MON dynstat_uvel_min             =  -8.2147976982026E-01
(PID.TID 0000.0001) %MON dynstat_uvel_mean            =   1.2605813607772E-03
(PID.TID 0000.0001) %MON dynstat_uvel_sd              =   1.7963981623875E-02
(PID.TID 0000.0001) %MON dynstat_uvel_del2            =   7.1654811832677E-06
(PID.TID 0000.0001) %MON dynstat_vvel_max             =   5.7292701247001E-01
(PID.TID 0000.0001) %MON dynstat_vvel_min             =  -9.0941127087604E-01
(PID.TID 0000.0001) %MON dynstat_vvel_mean            =   1.0040093944416E-03
(PID.TID 0000.0001) %MON dynstat_vvel_sd              =   1.9336284425127E-02
(PID.TID 0000.0001) %MON dynstat_vvel_del2            =   7.2679942174776E-06
(PID.TID 0000.0001) %MON dynstat_wvel_max             =   2.8445254005188E-04
(PID.TID 0000.0001) %MON dynstat_wvel_min             =  -7.5469003469553E-04
(PID.TID 0000.0001) %MON dynstat_wvel_mean            =  -5.8109571647065E-09
(PID.TID 0000.0001) %MON dynstat_wvel_sd              =   1.7541886370853E-05
(PID.TID 0000.0001) %MON dynstat_wvel_del2            =   1.3964307940135E-08
(PID.TID 0000.0001) %MON dynstat_theta_max            =   3.1838072414872E+01
(PID.TID 0000.0001) %MON dynstat_theta_min            =  -2.0397207163504E+00
(PID.TID 0000.0001) %MON dynstat_theta_mean           =   3.5901642110874E+00
(PID.TID 0000.0001) %MON dynstat_theta_sd             =   4.4366673908311E+00
(PID.TID 0000.0001) %MON dynstat_theta_del2           =   9.0784561464653E-05
(PID.TID 0000.0001) %MON dynstat_salt_max             =   4.0711543009973E+01
(PID.TID 0000.0001) %MON dynstat_salt_min             =   5.4608077174001E+00
(PID.TID 0000.0001) %MON dynstat_salt_mean            =   3.4725562737958E+01
(PID.TID 0000.0001) %MON dynstat_salt_sd              =   3.7709563286215E-01
(PID.TID 0000.0001) %MON dynstat_salt_del2            =   3.5177055994913E-05
(PID.TID 0000.0001) %MON dynstat_sst_max              =   3.1838055412709E+01
(PID.TID 0000.0001) %MON dynstat_sst_min              =  -1.8113850082172E+00
(PID.TID 0000.0001) %MON dynstat_sst_mean             =   1.8457721289805E+01
(PID.TID 0000.0001) %MON dynstat_sst_sd               =   1.0277491800172E+01
(PID.TID 0000.0001) %MON dynstat_sst_del2             =   7.9316657525968E-04
(PID.TID 0000.0001) %MON dynstat_sss_max              =   3.9098925247631E+01
(PID.TID 0000.0001) %MON dynstat_sss_min              =   5.4608077174001E+00
(PID.TID 0000.0001) %MON dynstat_sss_mean             =   3.4700723156501E+01
(PID.TID 0000.0001) %MON dynstat_sss_sd               =   1.1793940858329E+00
(PID.TID 0000.0001) %MON dynstat_sss_del2             =   1.0713139433739E-03
(PID.TID 0000.0001) %MON forcing_qnet_max             =   2.1580419921875E+03
(PID.TID 0000.0001) %MON forcing_qnet_min             =  -9.6410784912109E+02
(PID.TID 0000.0001) %MON forcing_qnet_mean            =  -1.1501320941368E+01
(PID.TID 0000.0001) %MON forcing_qnet_sd              =   2.0126275401433E+02
(PID.TID 0000.0001) %MON forcing_qnet_del2            =   3.5155403843966E-01
(PID.TID 0000.0001) %MON forcing_qsw_max              =   0.0000000000000E+00
(PID.TID 0000.0001) %MON forcing_qsw_min              =  -1.0667556652218E+02
(PID.TID 0000.0001) %MON forcing_qsw_mean             =  -1.9987404412768E+01
(PID.TID 0000.0001) %MON forcing_qsw_sd               =   2.8769816073804E+01
(PID.TID 0000.0001) %MON forcing_qsw_del2             =   2.0409959216776E-02
(PID.TID 0000.0001) %MON forcing_empmr_max            =   8.4825308294967E-04
(PID.TID 0000.0001) %MON forcing_empmr_min            =  -8.0096632242203E-02
(PID.TID 0000.0001) %MON forcing_empmr_mean           =  -5.1064211102704E-06
(PID.TID 0000.0001) %MON forcing_empmr_sd             =   3.4611321534242E-04
(PID.TID 0000.0001) %MON forcing_empmr_del2           =   3.5995099860975E-06
(PID.TID 0000.0001) %MON forcing_fu_max               =   8.4274518489838E-01
(PID.TID 0000.0001) %MON forcing_fu_min               =  -9.7162789106369E-01
(PID.TID 0000.0001) %MON forcing_fu_mean              =  -1.2520512866171E-03
(PID.TID 0000.0001) %MON forcing_fu_sd                =   1.0944917996379E-01
(PID.TID 0000.0001) %MON forcing_fu_del2              =   1.6666954057282E-04
(PID.TID 0000.0001) %MON forcing_fv_max               =   7.8872075676918E-01
(PID.TID 0000.0001) %MON forcing_fv_min               =  -8.3871093392372E-01
(PID.TID 0000.0001) %MON forcing_fv_mean              =  -8.3106971172584E-03
(PID.TID 0000.0001) %MON forcing_fv_sd                =   1.1321094376243E-01
(PID.TID 0000.0001) %MON forcing_fv_del2              =   1.4473314051573E-04
(PID.TID 0000.0001) %MON trAdv_CFL_u_max              =   1.1331436550732E-02
(PID.TID 0000.0001) %MON trAdv_CFL_v_max              =   1.3797366865253E-02
(PID.TID 0000.0001) %MON trAdv_CFL_w_max              =   2.1885628571457E-02
(PID.TID 0000.0001) %MON advcfl_uvel_max              =   8.9557732063567E-03
(PID.TID 0000.0001) %MON advcfl_vvel_max              =   1.1515987991409E-02
(PID.TID 0000.0001) %MON advcfl_wvel_max              =   1.8323337133096E-02
(PID.TID 0000.0001) %MON advcfl_W_hf_max              =   1.9216409003033E-02
(PID.TID 0000.0001) %MON pe_b_mean                    =   5.1235491573636E-04
(PID.TID 0000.0001) %MON ke_max                       =   4.3465921218178E-01
(PID.TID 0000.0001) %MON ke_mean                      =   3.3714812438341E-04
(PID.TID 0000.0001) %MON ke_vol                       =   1.3349982395921E+18
(PID.TID 0000.0001) %MON vort_r_min                   =  -8.8007346276927E-06
(PID.TID 0000.0001) %MON vort_r_max                   =   1.1535137676498E-05
(PID.TID 0000.0001) %MON vort_a_mean                  =  -1.9727864647440E-05
(PID.TID 0000.0001) %MON vort_a_sd                    =   7.4542950108993E-05
(PID.TID 0000.0001) %MON vort_p_mean                  =  -2.1760528112245E-05
(PID.TID 0000.0001) %MON vort_p_sd                    =   9.7245960586848E-05
(PID.TID 0000.0001) %MON surfExpan_theta_mean         =  -8.2692335182686E-08
(PID.TID 0000.0001) %MON surfExpan_salt_mean          =   6.6783263369795E-08
(PID.TID 0000.0001) // =======================================================
(PID.TID 0000.0001) // End MONITOR dynamic field statistics
(PID.TID 0000.0001) // =======================================================
(PID.TID 0000.0001) // =======================================================
(PID.TID 0000.0001) // Begin MONITOR SEAICE statistics
(PID.TID 0000.0001) // =======================================================
(PID.TID 0000.0001) %MON seaice_tsnumber              =                   952
(PID.TID 0000.0001) %MON seaice_time_sec              =   8.5680000000000E+05
(PID.TID 0000.0001) %MON seaice_uice_max              =   4.0000000000000E-01
(PID.TID 0000.0001) %MON seaice_uice_min              =  -4.0000000000000E-01
(PID.TID 0000.0001) %MON seaice_uice_mean             =  -8.3054598624025E-03
(PID.TID 0000.0001) %MON seaice_uice_sd               =   1.9802383574176E-01
(PID.TID 0000.0001) %MON seaice_uice_del2             =   2.2931571122150E-04
(PID.TID 0000.0001) %MON seaice_vice_max              =   4.0000000000000E-01
(PID.TID 0000.0001) %MON seaice_vice_min              =  -4.0000000000000E-01
(PID.TID 0000.0001) %MON seaice_vice_mean             =  -2.1960776359499E-02
(PID.TID 0000.0001) %MON seaice_vice_sd               =   2.1302038025672E-01
(PID.TID 0000.0001) %MON seaice_vice_del2             =   2.3932563818061E-04
(PID.TID 0000.0001) %MON seaice_area_max              =   9.9999999813735E-01
(PID.TID 0000.0001) %MON seaice_area_min              =   0.0000000000000E+00
(PID.TID 0000.0001) %MON seaice_area_mean             =   6.5136012667885E-02
(PID.TID 0000.0001) %MON seaice_area_sd               =   2.2858472041373E-01
(PID.TID 0000.0001) %MON seaice_area_del2             =   3.8203961268543E-04
(PID.TID 0000.0001) %MON seaice_heff_max              =   2.4952560146572E+01
(PID.TID 0000.0001) %MON seaice_heff_min              =   0.0000000000000E+00
(PID.TID 0000.0001) %MON seaice_heff_mean             =   2.1191353055485E-01
(PID.TID 0000.0001) %MON seaice_heff_sd               =   1.0659224597378E+00
(PID.TID 0000.0001) %MON seaice_heff_del2             =   3.8255423610070E-03
(PID.TID 0000.0001) %MON seaice_hsnow_max             =   8.2418182870315E+00
(PID.TID 0000.0001) %MON seaice_hsnow_min             =   0.0000000000000E+00
(PID.TID 0000.0001) %MON seaice_hsnow_mean            =   2.3869060996498E-02
(PID.TID 0000.0001) %MON seaice_hsnow_sd              =   1.5585961861767E-01
(PID.TID 0000.0001) %MON seaice_hsnow_del2            =   1.2365525042208E-03
(PID.TID 0000.0001) // =======================================================
(PID.TID 0000.0001) // End MONITOR SEAICE statistics
(PID.TID 0000.0001) // =======================================================
 Computing Diagnostic #     86  oceQnet      Counter:       4   Parms: SM      U1      
 Computing Diagnostic #     87  oceQsw       Counter:       4   Parms: SM      U1      
 Computing Diagnostic #     84  oceFWflx     Counter:       4   Parms: SM      U1      
 Computing Diagnostic #     85  oceSflux     Counter:       4   Parms: SM      U1      
 Computing Diagnostic #     80  oceTAUX      Counter:       4   Parms: UU      U1      
           Vector  Mate for  oceTAUX      Diagnostic #     81  oceTAUY  exists 
 Computing Diagnostic #     81  oceTAUY      Counter:       4   Parms: VV      U1      
           Vector  Mate for  oceTAUY      Diagnostic #     80  oceTAUX  exists 
 Computing Diagnostic #     26  THETA        Counter:       4   Parms: SMR     MR      
 Computing Diagnostic #     27  SALT         Counter:       4   Parms: SMR     MR      
 Computing Diagnostic #     30  UVEL         Counter:       4   Parms: UUR     MR      
           Vector  Mate for  UVEL         Diagnostic #     31  VVEL     exists 
 Computing Diagnostic #     31  VVEL         Counter:       4   Parms: VVR     MR      
           Vector  Mate for  VVEL         Diagnostic #     30  UVEL     exists 
 Computing Diagnostic #    214  SIarea       Counter:       4   Parms: SM      M1      
 Computing Diagnostic #    217  SIheff       Counter:       4   Parms: SM      M1      
 Computing Diagnostic #    219  SIhsnow      Counter:       4   Parms: SM      M1      
 Computing Diagnostic #     83  sIceLoad     Counter:       4   Parms: SM      U1      
 Computing Diagnostic #    223  SIuice       Counter:       4   Parms: UU      M1      
           Vector  Mate for  SIuice       Diagnostic #    224  SIvice   exists 
 Computing Diagnostic #    224  SIvice       Counter:       4   Parms: VV      M1      
           Vector  Mate for  SIvice       Diagnostic #    223  SIuice   exists 
 Computing Diagnostic #    225  SItaux       Counter:       4   Parms: UU      U1      
           Vector  Mate for  SItaux       Diagnostic #    226  SItauy   exists 
 Computing Diagnostic #    226  SItauy       Counter:       4   Parms: VV      U1      
           Vector  Mate for  SItauy       Diagnostic #    225  SItaux   exists 
 Computing Diagnostic #    285  SIareaN      Counter:       4   Parms: SM      MX      
 Computing Diagnostic #    284  SIheffN      Counter:       4   Parms: SM      MX      
 Computing Diagnostic #    286  SIhsnowN     Counter:       4   Parms: SM      MX      
 Compute Stats, Diag. #    214  SIarea    vol(   0 ): 3.580E+14  Parms: SM      M1      
 Compute Stats, Diag. #    217  SIheff    vol(   0 ): 3.580E+14  Parms: SM      M1      
 Compute Stats, Diag. #    219  SIhsnow   vol(   0 ): 3.580E+14  Parms: SM      M1      
 Compute Stats, Diag. #     83  sIceLoad  vol(   0 ): 3.580E+14  Parms: SM      U1      
 Compute Stats, Diag. #    223  SIuice    vol(   0 ): 3.513E+14  Parms: UU      M1      
 Compute Stats, Diag. #    224  SIvice    vol(   0 ): 3.508E+14  Parms: VV      M1      
 Compute Stats, Diag. #    225  SItaux    vol(   0 ): 3.513E+14  Parms: UU      U1      
 Compute Stats, Diag. #    226  SItauy    vol(   0 ): 3.508E+14  Parms: VV      U1      
 cg2d: Sum(rhs),rhsMax =  -3.23051332389903E+01  2.84724539342879E-01
 Compute Stats, Diag. #    214  SIarea    vol(   0 ): 3.580E+14  Parms: SM      M1      
 Compute Stats, Diag. #    217  SIheff    vol(   0 ): 3.580E+14  Parms: SM      M1      
 Compute Stats, Diag. #    219  SIhsnow   vol(   0 ): 3.580E+14  Parms: SM      M1      
 Compute Stats, Diag. #     83  sIceLoad  vol(   0 ): 3.580E+14  Parms: SM      U1      
 Compute Stats, Diag. #    223  SIuice    vol(   0 ): 3.513E+14  Parms: UU      M1      
 Compute Stats, Diag. #    224  SIvice    vol(   0 ): 3.508E+14  Parms: VV      M1      
 Compute Stats, Diag. #    225  SItaux    vol(   0 ): 3.513E+14  Parms: UU      U1      
 Compute Stats, Diag. #    226  SItauy    vol(   0 ): 3.508E+14  Parms: VV      U1      
 cg2d: Sum(rhs),rhsMax =  -3.24318972374817E+01  2.84740303806003E-01
 Compute Stats, Diag. #    214  SIarea    vol(   0 ): 3.580E+14  Parms: SM      M1      
 Compute Stats, Diag. #    217  SIheff    vol(   0 ): 3.580E+14  Parms: SM      M1      
 Compute Stats, Diag. #    219  SIhsnow   vol(   0 ): 3.580E+14  Parms: SM      M1      
 Compute Stats, Diag. #     83  sIceLoad  vol(   0 ): 3.580E+14  Parms: SM      U1      
 Compute Stats, Diag. #    223  SIuice    vol(   0 ): 3.513E+14  Parms: UU      M1      
 Compute Stats, Diag. #    224  SIvice    vol(   0 ): 3.508E+14  Parms: VV      M1      
 Compute Stats, Diag. #    225  SItaux    vol(   0 ): 3.513E+14  Parms: UU      U1      
 Compute Stats, Diag. #    226  SItauy    vol(   0 ): 3.508E+14  Parms: VV      U1      
 cg2d: Sum(rhs),rhsMax =  -3.25511899148325E+01  2.84753558837684E-01
 Compute Stats, Diag. #    214  SIarea    vol(   0 ): 3.580E+14  Parms: SM      M1      
 Compute Stats, Diag. #    217  SIheff    vol(   0 ): 3.580E+14  Parms: SM      M1      
 Compute Stats, Diag. #    219  SIhsnow   vol(   0 ): 3.580E+14  Parms: SM      M1      
 Compute Stats, Diag. #     83  sIceLoad  vol(   0 ): 3.580E+14  Parms: SM      U1      
 Compute Stats, Diag. #    223  SIuice    vol(   0 ): 3.513E+14  Parms: UU      M1      
 Compute Stats, Diag. #    224  SIvice    vol(   0 ): 3.508E+14  Parms: VV      M1      
 Compute Stats, Diag. #    225  SItaux    vol(   0 ): 3.513E+14  Parms: UU      U1      
 Compute Stats, Diag. #    226  SItauy    vol(   0 ): 3.508E+14  Parms: VV      U1      
 cg2d: Sum(rhs),rhsMax =  -3.26645286164462E+01  2.84763824226329E-01
 Computing Diagnostic #     86  oceQnet      Counter:       4   Parms: SM      U1      
 Computing Diagnostic #     87  oceQsw       Counter:       4   Parms: SM      U1      
 Computing Diagnostic #     84  oceFWflx     Counter:       4   Parms: SM      U1      
 Computing Diagnostic #     85  oceSflux     Counter:       4   Parms: SM      U1      
 Computing Diagnostic #     80  oceTAUX      Counter:       4   Parms: UU      U1      
           Vector  Mate for  oceTAUX      Diagnostic #     81  oceTAUY  exists 
 Computing Diagnostic #     81  oceTAUY      Counter:       4   Parms: VV      U1      
           Vector  Mate for  oceTAUY      Diagnostic #     80  oceTAUX  exists 
 Computing Diagnostic #     26  THETA        Counter:       4   Parms: SMR     MR      
 Computing Diagnostic #     27  SALT         Counter:       4   Parms: SMR     MR      
 Computing Diagnostic #     30  UVEL         Counter:       4   Parms: UUR     MR      
           Vector  Mate for  UVEL         Diagnostic #     31  VVEL     exists 
 Computing Diagnostic #     31  VVEL         Counter:       4   Parms: VVR     MR      
           Vector  Mate for  VVEL         Diagnostic #     30  UVEL     exists 
 Computing Diagnostic #    214  SIarea       Counter:       4   Parms: SM      M1      
 Computing Diagnostic #    217  SIheff       Counter:       4   Parms: SM      M1      
 Computing Diagnostic #    219  SIhsnow      Counter:       4   Parms: SM      M1      
 Computing Diagnostic #     83  sIceLoad     Counter:       4   Parms: SM      U1      
 Computing Diagnostic #    223  SIuice       Counter:       4   Parms: UU      M1      
           Vector  Mate for  SIuice       Diagnostic #    224  SIvice   exists 
 Computing Diagnostic #    224  SIvice       Counter:       4   Parms: VV      M1      
           Vector  Mate for  SIvice       Diagnostic #    223  SIuice   exists 
 Computing Diagnostic #    225  SItaux       Counter:       4   Parms: UU      U1      
           Vector  Mate for  SItaux       Diagnostic #    226  SItauy   exists 
 Computing Diagnostic #    226  SItauy       Counter:       4   Parms: VV      U1      
           Vector  Mate for  SItauy       Diagnostic #    225  SItaux   exists 
 Computing Diagnostic #    285  SIareaN      Counter:       4   Parms: SM      MX      
 Computing Diagnostic #    284  SIheffN      Counter:       4   Parms: SM      MX      
 Computing Diagnostic #    286  SIhsnowN     Counter:       4   Parms: SM      MX      
 Compute Stats, Diag. #    214  SIarea    vol(   0 ): 3.580E+14  Parms: SM      M1      
 Compute Stats, Diag. #    217  SIheff    vol(   0 ): 3.580E+14  Parms: SM      M1      
 Compute Stats, Diag. #    219  SIhsnow   vol(   0 ): 3.580E+14  Parms: SM      M1      
 Compute Stats, Diag. #     83  sIceLoad  vol(   0 ): 3.580E+14  Parms: SM      U1      
 Compute Stats, Diag. #    223  SIuice    vol(   0 ): 3.513E+14  Parms: UU      M1      
 Compute Stats, Diag. #    224  SIvice    vol(   0 ): 3.508E+14  Parms: VV      M1      
 Compute Stats, Diag. #    225  SItaux    vol(   0 ): 3.513E+14  Parms: UU      U1      
 Compute Stats, Diag. #    226  SItauy    vol(   0 ): 3.508E+14  Parms: VV      U1      
 cg2d: Sum(rhs),rhsMax =  -3.27818686444456E+01  2.84770341560439E-01
 Compute Stats, Diag. #    214  SIarea    vol(   0 ): 3.580E+14  Parms: SM      M1      
 Compute Stats, Diag. #    217  SIheff    vol(   0 ): 3.580E+14  Parms: SM      M1      
 Compute Stats, Diag. #    219  SIhsnow   vol(   0 ): 3.580E+14  Parms: SM      M1      
 Compute Stats, Diag. #     83  sIceLoad  vol(   0 ): 3.580E+14  Parms: SM      U1      
 Compute Stats, Diag. #    223  SIuice    vol(   0 ): 3.513E+14  Parms: UU      M1      
 Compute Stats, Diag. #    224  SIvice    vol(   0 ): 3.508E+14  Parms: VV      M1      
 Compute Stats, Diag. #    225  SItaux    vol(   0 ): 3.513E+14  Parms: UU      U1      
 Compute Stats, Diag. #    226  SItauy    vol(   0 ): 3.508E+14  Parms: VV      U1      
 cg2d: Sum(rhs),rhsMax =  -3.28817064324823E+01  2.84773127496366E-01
 Compute Stats, Diag. #    214  SIarea    vol(   0 ): 3.580E+14  Parms: SM      M1      
 Compute Stats, Diag. #    217  SIheff    vol(   0 ): 3.580E+14  Parms: SM      M1      
 Compute Stats, Diag. #    219  SIhsnow   vol(   0 ): 3.580E+14  Parms: SM      M1      
 Compute Stats, Diag. #     83  sIceLoad  vol(   0 ): 3.580E+14  Parms: SM      U1      
 Compute Stats, Diag. #    223  SIuice    vol(   0 ): 3.513E+14  Parms: UU      M1      
 Compute Stats, Diag. #    224  SIvice    vol(   0 ): 3.508E+14  Parms: VV      M1      
 Compute Stats, Diag. #    225  SItaux    vol(   0 ): 3.513E+14  Parms: UU      U1      
 Compute Stats, Diag. #    226  SItauy    vol(   0 ): 3.508E+14  Parms: VV      U1      
 cg2d: Sum(rhs),rhsMax =  -3.29769366056605E+01  2.84771850480344E-01
 Compute Stats, Diag. #    214  SIarea    vol(   0 ): 3.580E+14  Parms: SM      M1      
 Compute Stats, Diag. #    217  SIheff    vol(   0 ): 3.580E+14  Parms: SM      M1      
 Compute Stats, Diag. #    219  SIhsnow   vol(   0 ): 3.580E+14  Parms: SM      M1      
 Compute Stats, Diag. #     83  sIceLoad  vol(   0 ): 3.580E+14  Parms: SM      U1      
 Compute Stats, Diag. #    223  SIuice    vol(   0 ): 3.513E+14  Parms: UU      M1      
 Compute Stats, Diag. #    224  SIvice    vol(   0 ): 3.508E+14  Parms: VV      M1      
 Compute Stats, Diag. #    225  SItaux    vol(   0 ): 3.513E+14  Parms: UU      U1      
 Compute Stats, Diag. #    226  SItauy    vol(   0 ): 3.508E+14  Parms: VV      U1      
 cg2d: Sum(rhs),rhsMax =  -3.30618781599527E+01  2.84766132208634E-01
(PID.TID 0000.0001)      cg2d_init_res =   4.65588360544900E-02
(PID.TID 0000.0001)      cg2d_iters(min,last) =      -1      24
(PID.TID 0000.0001)      cg2d_last_res =   2.70532134948888E-05
(PID.TID 0000.0001) // =======================================================
(PID.TID 0000.0001) // Begin MONITOR dynamic field statistics
(PID.TID 0000.0001) // =======================================================
(PID.TID 0000.0001) %MON time_tsnumber                =                   960
(PID.TID 0000.0001) %MON time_secondsf                =   8.6400000000000E+05
(PID.TID 0000.0001) %MON dynstat_eta_max              =   1.0165312319539E+00
(PID.TID 0000.0001) %MON dynstat_eta_min              =  -1.8137799351502E+00
(PID.TID 0000.0001) %MON dynstat_eta_mean             =   1.0458527988319E-03
(PID.TID 0000.0001) %MON dynstat_eta_sd               =   6.2376106142015E-01
(PID.TID 0000.0001) %MON dynstat_eta_del2             =   5.0521636037302E-05
(PID.TID 0000.0001) %MON dynstat_uvel_max             =   7.0460183836725E-01
(PID.TID 0000.0001) %MON dynstat_uvel_min             =  -8.3280201954746E-01
(PID.TID 0000.0001) %MON dynstat_uvel_mean            =   1.2599107799699E-03
(PID.TID 0000.0001) %MON dynstat_uvel_sd              =   1.7936018412964E-02
(PID.TID 0000.0001) %MON dynstat_uvel_del2            =   7.1645366584752E-06
(PID.TID 0000.0001) %MON dynstat_vvel_max             =   5.7417549866778E-01
(PID.TID 0000.0001) %MON dynstat_vvel_min             =  -9.2065974355128E-01
(PID.TID 0000.0001) %MON dynstat_vvel_mean            =   1.0045977439678E-03
(PID.TID 0000.0001) %MON dynstat_vvel_sd              =   1.9321013226752E-02
(PID.TID 0000.0001) %MON dynstat_vvel_del2            =   7.2910131454173E-06
(PID.TID 0000.0001) %MON dynstat_wvel_max             =   2.8310567445583E-04
(PID.TID 0000.0001) %MON dynstat_wvel_min             =  -7.5133748722657E-04
(PID.TID 0000.0001) %MON dynstat_wvel_mean            =  -5.3613062556884E-09
(PID.TID 0000.0001) %MON dynstat_wvel_sd              =   1.7332133229218E-05
(PID.TID 0000.0001) %MON dynstat_wvel_del2            =   1.3989511484138E-08
(PID.TID 0000.0001) %MON dynstat_theta_max            =   3.1816678980788E+01
(PID.TID 0000.0001) %MON dynstat_theta_min            =  -2.0397150136102E+00
(PID.TID 0000.0001) %MON dynstat_theta_mean           =   3.5901733962040E+00
(PID.TID 0000.0001) %MON dynstat_theta_sd             =   4.4367210525135E+00
(PID.TID 0000.0001) %MON dynstat_theta_del2           =   9.0752292501032E-05
(PID.TID 0000.0001) %MON dynstat_salt_max             =   4.0711543064763E+01
(PID.TID 0000.0001) %MON dynstat_salt_min             =   5.2464490113817E+00
(PID.TID 0000.0001) %MON dynstat_salt_mean            =   3.4725562482086E+01
(PID.TID 0000.0001) %MON dynstat_salt_sd              =   3.7709862684714E-01
(PID.TID 0000.0001) %MON dynstat_salt_del2            =   3.5232002957594E-05
(PID.TID 0000.0001) %MON dynstat_sst_max              =   3.1816660389159E+01
(PID.TID 0000.0001) %MON dynstat_sst_min              =  -1.8111297185159E+00
(PID.TID 0000.0001) %MON dynstat_sst_mean             =   1.8460279008243E+01
(PID.TID 0000.0001) %MON dynstat_sst_sd               =   1.0279360243922E+01
(PID.TID 0000.0001) %MON dynstat_sst_del2             =   7.9295737725713E-04
(PID.TID 0000.0001) %MON dynstat_sss_max              =   3.9098845036758E+01
(PID.TID 0000.0001) %MON dynstat_sss_min              =   5.2464490113817E+00
(PID.TID 0000.0001) %MON dynstat_sss_mean             =   3.4700776135353E+01
(PID.TID 0000.0001) %MON dynstat_sss_sd               =   1.1798483017979E+00
(PID.TID 0000.0001) %MON dynstat_sss_del2             =   1.0748456806257E-03
(PID.TID 0000.0001) %MON forcing_qnet_max             =   9.7880554199219E+02
(PID.TID 0000.0001) %MON forcing_qnet_min             =  -1.0566048583984E+03
(PID.TID 0000.0001) %MON forcing_qnet_mean            =  -2.5927746597117E+01
(PID.TID 0000.0001) %MON forcing_qnet_sd              =   2.1642694011551E+02
(PID.TID 0000.0001) %MON forcing_qnet_del2            =   3.3489998183322E-01
(PID.TID 0000.0001) %MON forcing_qsw_max              =   0.0000000000000E+00
(PID.TID 0000.0001) %MON forcing_qsw_min              =  -1.1021170454231E+02
(PID.TID 0000.0001) %MON forcing_qsw_mean             =  -2.2115309095111E+01
(PID.TID 0000.0001) %MON forcing_qsw_sd               =   3.0909960587796E+01
(PID.TID 0000.0001) %MON forcing_qsw_del2             =   1.8944326403670E-02
(PID.TID 0000.0001) %MON forcing_empmr_max            =   7.8179256524891E-04
(PID.TID 0000.0001) %MON forcing_empmr_min            =  -7.3202766478062E-02
(PID.TID 0000.0001) %MON forcing_empmr_mean           =  -3.0721053937393E-06
(PID.TID 0000.0001) %MON forcing_empmr_sd             =   3.3873260519979E-04
(PID.TID 0000.0001) %MON forcing_empmr_del2           =   3.5248327413625E-06
(PID.TID 0000.0001) %MON forcing_fu_max               =   8.1783619523048E-01
(PID.TID 0000.0001) %MON forcing_fu_min               =  -1.0181559920311E+00
(PID.TID 0000.0001) %MON forcing_fu_mean              =  -1.3519403842061E-03
(PID.TID 0000.0001) %MON forcing_fu_sd                =   1.0851775414893E-01
(PID.TID 0000.0001) %MON forcing_fu_del2              =   1.6606133492412E-04
(PID.TID 0000.0001) %MON forcing_fv_max               =   8.2095369696617E-01
(PID.TID 0000.0001) %MON forcing_fv_min               =  -7.5976747274399E-01
(PID.TID 0000.0001) %MON forcing_fv_mean              =  -7.9526561172268E-03
(PID.TID 0000.0001) %MON forcing_fv_sd                =   1.1293122438508E-01
(PID.TID 0000.0001) %MON forcing_fv_del2              =   1.4465577177488E-04
(PID.TID 0000.0001) %MON trAdv_CFL_u_max              =   1.1322985959159E-02
(PID.TID 0000.0001) %MON trAdv_CFL_v_max              =   1.3739220595834E-02
(PID.TID 0000.0001) %MON trAdv_CFL_w_max              =   2.2249887108540E-02
(PID.TID 0000.0001) %MON advcfl_uvel_max              =   9.0302389217743E-03
(PID.TID 0000.0001) %MON advcfl_vvel_max              =   1.1541082901839E-02
(PID.TID 0000.0001) %MON advcfl_wvel_max              =   1.8552183524869E-02
(PID.TID 0000.0001) %MON advcfl_W_hf_max              =   1.9456438463606E-02
(PID.TID 0000.0001) %MON pe_b_mean                    =   5.1179483420036E-04
(PID.TID 0000.0001) %MON ke_max                       =   4.4522775468124E-01
(PID.TID 0000.0001) %MON ke_mean                      =   3.3637919928666E-04
(PID.TID 0000.0001) %MON ke_vol                       =   1.3349982504071E+18
(PID.TID 0000.0001) %MON vort_r_min                   =  -8.2877414699600E-06
(PID.TID 0000.0001) %MON vort_r_max                   =   1.1518051658023E-05
(PID.TID 0000.0001) %MON vort_a_mean                  =  -1.9727864647440E-05
(PID.TID 0000.0001) %MON vort_a_sd                    =   7.4542949831594E-05
(PID.TID 0000.0001) %MON vort_p_mean                  =  -2.1760527908558E-05
(PID.TID 0000.0001) %MON vort_p_sd                    =   9.7245911039453E-05
(PID.TID 0000.0001) %MON surfExpan_theta_mean         =  -3.3351581433169E-08
(PID.TID 0000.0001) %MON surfExpan_salt_mean          =   7.1846225323799E-08
(PID.TID 0000.0001) // =======================================================
(PID.TID 0000.0001) // End MONITOR dynamic field statistics
(PID.TID 0000.0001) // =======================================================
(PID.TID 0000.0001) // =======================================================
(PID.TID 0000.0001) // Begin MONITOR SEAICE statistics
(PID.TID 0000.0001) // =======================================================
(PID.TID 0000.0001) %MON seaice_tsnumber              =                   960
(PID.TID 0000.0001) %MON seaice_time_sec              =   8.6400000000000E+05
(PID.TID 0000.0001) %MON seaice_uice_max              =   4.0000000000000E-01
(PID.TID 0000.0001) %MON seaice_uice_min              =  -4.0000000000000E-01
(PID.TID 0000.0001) %MON seaice_uice_mean             =  -8.3054598624025E-03
(PID.TID 0000.0001) %MON seaice_uice_sd               =   1.9802383574176E-01
(PID.TID 0000.0001) %MON seaice_uice_del2             =   2.2931571122150E-04
(PID.TID 0000.0001) %MON seaice_vice_max              =   4.0000000000000E-01
(PID.TID 0000.0001) %MON seaice_vice_min              =  -4.0000000000000E-01
(PID.TID 0000.0001) %MON seaice_vice_mean             =  -2.1960776359499E-02
(PID.TID 0000.0001) %MON seaice_vice_sd               =   2.1302038025672E-01
(PID.TID 0000.0001) %MON seaice_vice_del2             =   2.3932563818061E-04
(PID.TID 0000.0001) %MON seaice_area_max              =   1.0000000000000E+00
(PID.TID 0000.0001) %MON seaice_area_min              =   0.0000000000000E+00
(PID.TID 0000.0001) %MON seaice_area_mean             =   6.5118102491996E-02
(PID.TID 0000.0001) %MON seaice_area_sd               =   2.2855308989554E-01
(PID.TID 0000.0001) %MON seaice_area_del2             =   3.8150409652796E-04
(PID.TID 0000.0001) %MON seaice_heff_max              =   2.4948878389434E+01
(PID.TID 0000.0001) %MON seaice_heff_min              =   0.0000000000000E+00
(PID.TID 0000.0001) %MON seaice_heff_mean             =   2.1189074064973E-01
(PID.TID 0000.0001) %MON seaice_heff_sd               =   1.0659001270560E+00
(PID.TID 0000.0001) %MON seaice_heff_del2             =   3.8248789043404E-03
(PID.TID 0000.0001) %MON seaice_hsnow_max             =   8.2406090824516E+00
(PID.TID 0000.0001) %MON seaice_hsnow_min             =   0.0000000000000E+00
(PID.TID 0000.0001) %MON seaice_hsnow_mean            =   2.3862140869878E-02
(PID.TID 0000.0001) %MON seaice_hsnow_sd              =   1.5584961068951E-01
(PID.TID 0000.0001) %MON seaice_hsnow_del2            =   1.2364369613828E-03
(PID.TID 0000.0001) // =======================================================
(PID.TID 0000.0001) // End MONITOR SEAICE statistics
(PID.TID 0000.0001) // =======================================================
 Computing Diagnostic #     86  oceQnet      Counter:       4   Parms: SM      U1      
 Computing Diagnostic #     87  oceQsw       Counter:       4   Parms: SM      U1      
 Computing Diagnostic #     84  oceFWflx     Counter:       4   Parms: SM      U1      
 Computing Diagnostic #     85  oceSflux     Counter:       4   Parms: SM      U1      
 Computing Diagnostic #     80  oceTAUX      Counter:       4   Parms: UU      U1      
           Vector  Mate for  oceTAUX      Diagnostic #     81  oceTAUY  exists 
 Computing Diagnostic #     81  oceTAUY      Counter:       4   Parms: VV      U1      
           Vector  Mate for  oceTAUY      Diagnostic #     80  oceTAUX  exists 
 Computing Diagnostic #     26  THETA        Counter:       4   Parms: SMR     MR      
 Computing Diagnostic #     27  SALT         Counter:       4   Parms: SMR     MR      
 Computing Diagnostic #     30  UVEL         Counter:       4   Parms: UUR     MR      
           Vector  Mate for  UVEL         Diagnostic #     31  VVEL     exists 
 Computing Diagnostic #     31  VVEL         Counter:       4   Parms: VVR     MR      
           Vector  Mate for  VVEL         Diagnostic #     30  UVEL     exists 
 Computing Diagnostic #    214  SIarea       Counter:       4   Parms: SM      M1      
 Computing Diagnostic #    217  SIheff       Counter:       4   Parms: SM      M1      
 Computing Diagnostic #    219  SIhsnow      Counter:       4   Parms: SM      M1      
 Computing Diagnostic #     83  sIceLoad     Counter:       4   Parms: SM      U1      
 Computing Diagnostic #    223  SIuice       Counter:       4   Parms: UU      M1      
           Vector  Mate for  SIuice       Diagnostic #    224  SIvice   exists 
 Computing Diagnostic #    224  SIvice       Counter:       4   Parms: VV      M1      
           Vector  Mate for  SIvice       Diagnostic #    223  SIuice   exists 
 Computing Diagnostic #    225  SItaux       Counter:       4   Parms: UU      U1      
           Vector  Mate for  SItaux       Diagnostic #    226  SItauy   exists 
 Computing Diagnostic #    226  SItauy       Counter:       4   Parms: VV      U1      
           Vector  Mate for  SItauy       Diagnostic #    225  SItaux   exists 
 Computing Diagnostic #    285  SIareaN      Counter:       4   Parms: SM      MX      
 Computing Diagnostic #    284  SIheffN      Counter:       4   Parms: SM      MX      
 Computing Diagnostic #    286  SIhsnowN     Counter:       4   Parms: SM      MX      
 Compute Stats, Diag. #    214  SIarea    vol(   0 ): 3.580E+14  Parms: SM      M1      
 Compute Stats, Diag. #    217  SIheff    vol(   0 ): 3.580E+14  Parms: SM      M1      
 Compute Stats, Diag. #    219  SIhsnow   vol(   0 ): 3.580E+14  Parms: SM      M1      
 Compute Stats, Diag. #     83  sIceLoad  vol(   0 ): 3.580E+14  Parms: SM      U1      
 Compute Stats, Diag. #    223  SIuice    vol(   0 ): 3.513E+14  Parms: UU      M1      
 Compute Stats, Diag. #    224  SIvice    vol(   0 ): 3.508E+14  Parms: VV      M1      
 Compute Stats, Diag. #    225  SItaux    vol(   0 ): 3.513E+14  Parms: UU      U1      
 Compute Stats, Diag. #    226  SItauy    vol(   0 ): 3.508E+14  Parms: VV      U1      
 cg2d: Sum(rhs),rhsMax =  -3.31504566456545E+01  2.84755960060304E-01
 Compute Stats, Diag. #    214  SIarea    vol(   0 ): 3.580E+14  Parms: SM      M1      
 Compute Stats, Diag. #    217  SIheff    vol(   0 ): 3.580E+14  Parms: SM      M1      
 Compute Stats, Diag. #    219  SIhsnow   vol(   0 ): 3.580E+14  Parms: SM      M1      
 Compute Stats, Diag. #     83  sIceLoad  vol(   0 ): 3.580E+14  Parms: SM      U1      
 Compute Stats, Diag. #    223  SIuice    vol(   0 ): 3.513E+14  Parms: UU      M1      
 Compute Stats, Diag. #    224  SIvice    vol(   0 ): 3.508E+14  Parms: VV      M1      
 Compute Stats, Diag. #    225  SItaux    vol(   0 ): 3.513E+14  Parms: UU      U1      
 Compute Stats, Diag. #    226  SItauy    vol(   0 ): 3.508E+14  Parms: VV      U1      
 cg2d: Sum(rhs),rhsMax =  -3.32075259514319E+01  2.84741141961121E-01
 Compute Stats, Diag. #    214  SIarea    vol(   0 ): 3.580E+14  Parms: SM      M1      
 Compute Stats, Diag. #    217  SIheff    vol(   0 ): 3.580E+14  Parms: SM      M1      
 Compute Stats, Diag. #    219  SIhsnow   vol(   0 ): 3.580E+14  Parms: SM      M1      
 Compute Stats, Diag. #     83  sIceLoad  vol(   0 ): 3.580E+14  Parms: SM      U1      
 Compute Stats, Diag. #    223  SIuice    vol(   0 ): 3.513E+14  Parms: UU      M1      
 Compute Stats, Diag. #    224  SIvice    vol(   0 ): 3.508E+14  Parms: VV      M1      
 Compute Stats, Diag. #    225  SItaux    vol(   0 ): 3.513E+14  Parms: UU      U1      
 Compute Stats, Diag. #    226  SItauy    vol(   0 ): 3.508E+14  Parms: VV      U1      
 cg2d: Sum(rhs),rhsMax =  -3.32598202474079E+01  2.84721449937181E-01
 Compute Stats, Diag. #    214  SIarea    vol(   0 ): 3.580E+14  Parms: SM      M1      
 Compute Stats, Diag. #    217  SIheff    vol(   0 ): 3.580E+14  Parms: SM      M1      
 Compute Stats, Diag. #    219  SIhsnow   vol(   0 ): 3.580E+14  Parms: SM      M1      
 Compute Stats, Diag. #     83  sIceLoad  vol(   0 ): 3.580E+14  Parms: SM      U1      
 Compute Stats, Diag. #    223  SIuice    vol(   0 ): 3.513E+14  Parms: UU      M1      
 Compute Stats, Diag. #    224  SIvice    vol(   0 ): 3.508E+14  Parms: VV      M1      
 Compute Stats, Diag. #    225  SItaux    vol(   0 ): 3.513E+14  Parms: UU      U1      
 Compute Stats, Diag. #    226  SItauy    vol(   0 ): 3.508E+14  Parms: VV      U1      
 cg2d: Sum(rhs),rhsMax =  -3.33065311869041E+01  2.84696873156664E-01
 Computing Diagnostic #     86  oceQnet      Counter:       4   Parms: SM      U1      
 Computing Diagnostic #     87  oceQsw       Counter:       4   Parms: SM      U1      
 Computing Diagnostic #     84  oceFWflx     Counter:       4   Parms: SM      U1      
 Computing Diagnostic #     85  oceSflux     Counter:       4   Parms: SM      U1      
 Computing Diagnostic #     80  oceTAUX      Counter:       4   Parms: UU      U1      
           Vector  Mate for  oceTAUX      Diagnostic #     81  oceTAUY  exists 
 Computing Diagnostic #     81  oceTAUY      Counter:       4   Parms: VV      U1      
           Vector  Mate for  oceTAUY      Diagnostic #     80  oceTAUX  exists 
 Computing Diagnostic #     26  THETA        Counter:       4   Parms: SMR     MR      
 Computing Diagnostic #     27  SALT         Counter:       4   Parms: SMR     MR      
 Computing Diagnostic #     30  UVEL         Counter:       4   Parms: UUR     MR      
           Vector  Mate for  UVEL         Diagnostic #     31  VVEL     exists 
 Computing Diagnostic #     31  VVEL         Counter:       4   Parms: VVR     MR      
           Vector  Mate for  VVEL         Diagnostic #     30  UVEL     exists 
 Computing Diagnostic #    214  SIarea       Counter:       4   Parms: SM      M1      
 Computing Diagnostic #    217  SIheff       Counter:       4   Parms: SM      M1      
 Computing Diagnostic #    219  SIhsnow      Counter:       4   Parms: SM      M1      
 Computing Diagnostic #     83  sIceLoad     Counter:       4   Parms: SM      U1      
 Computing Diagnostic #    223  SIuice       Counter:       4   Parms: UU      M1      
           Vector  Mate for  SIuice       Diagnostic #    224  SIvice   exists 
 Computing Diagnostic #    224  SIvice       Counter:       4   Parms: VV      M1      
           Vector  Mate for  SIvice       Diagnostic #    223  SIuice   exists 
 Computing Diagnostic #    225  SItaux       Counter:       4   Parms: UU      U1      
           Vector  Mate for  SItaux       Diagnostic #    226  SItauy   exists 
 Computing Diagnostic #    226  SItauy       Counter:       4   Parms: VV      U1      
           Vector  Mate for  SItauy       Diagnostic #    225  SItaux   exists 
 Computing Diagnostic #    285  SIareaN      Counter:       4   Parms: SM      MX      
 Computing Diagnostic #    284  SIheffN      Counter:       4   Parms: SM      MX      
 Computing Diagnostic #    286  SIhsnowN     Counter:       4   Parms: SM      MX      
 Compute Stats, Diag. #    214  SIarea    vol(   0 ): 3.580E+14  Parms: SM      M1      
 Compute Stats, Diag. #    217  SIheff    vol(   0 ): 3.580E+14  Parms: SM      M1      
 Compute Stats, Diag. #    219  SIhsnow   vol(   0 ): 3.580E+14  Parms: SM      M1      
 Compute Stats, Diag. #     83  sIceLoad  vol(   0 ): 3.580E+14  Parms: SM      U1      
 Compute Stats, Diag. #    223  SIuice    vol(   0 ): 3.513E+14  Parms: UU      M1      
 Compute Stats, Diag. #    224  SIvice    vol(   0 ): 3.508E+14  Parms: VV      M1      
 Compute Stats, Diag. #    225  SItaux    vol(   0 ): 3.513E+14  Parms: UU      U1      
 Compute Stats, Diag. #    226  SItauy    vol(   0 ): 3.508E+14  Parms: VV      U1      
 cg2d: Sum(rhs),rhsMax =  -3.33497769604147E+01  2.84667459170044E-01
 Compute Stats, Diag. #    214  SIarea    vol(   0 ): 3.580E+14  Parms: SM      M1      
 Compute Stats, Diag. #    217  SIheff    vol(   0 ): 3.580E+14  Parms: SM      M1      
 Compute Stats, Diag. #    219  SIhsnow   vol(   0 ): 3.580E+14  Parms: SM      M1      
 Compute Stats, Diag. #     83  sIceLoad  vol(   0 ): 3.580E+14  Parms: SM      U1      
 Compute Stats, Diag. #    223  SIuice    vol(   0 ): 3.513E+14  Parms: UU      M1      
 Compute Stats, Diag. #    224  SIvice    vol(   0 ): 3.508E+14  Parms: VV      M1      
 Compute Stats, Diag. #    225  SItaux    vol(   0 ): 3.513E+14  Parms: UU      U1      
 Compute Stats, Diag. #    226  SItauy    vol(   0 ): 3.508E+14  Parms: VV      U1      
 cg2d: Sum(rhs),rhsMax =  -3.33850245061815E+01  2.84633177756315E-01
 Compute Stats, Diag. #    214  SIarea    vol(   0 ): 3.580E+14  Parms: SM      M1      
 Compute Stats, Diag. #    217  SIheff    vol(   0 ): 3.580E+14  Parms: SM      M1      
 Compute Stats, Diag. #    219  SIhsnow   vol(   0 ): 3.580E+14  Parms: SM      M1      
 Compute Stats, Diag. #     83  sIceLoad  vol(   0 ): 3.580E+14  Parms: SM      U1      
 Compute Stats, Diag. #    223  SIuice    vol(   0 ): 3.513E+14  Parms: UU      M1      
 Compute Stats, Diag. #    224  SIvice    vol(   0 ): 3.508E+14  Parms: VV      M1      
 Compute Stats, Diag. #    225  SItaux    vol(   0 ): 3.513E+14  Parms: UU      U1      
 Compute Stats, Diag. #    226  SItauy    vol(   0 ): 3.508E+14  Parms: VV      U1      
 cg2d: Sum(rhs),rhsMax =  -3.34146836915107E+01  2.84594383971679E-01
 Compute Stats, Diag. #    214  SIarea    vol(   0 ): 3.580E+14  Parms: SM      M1      
 Compute Stats, Diag. #    217  SIheff    vol(   0 ): 3.580E+14  Parms: SM      M1      
 Compute Stats, Diag. #    219  SIhsnow   vol(   0 ): 3.580E+14  Parms: SM      M1      
 Compute Stats, Diag. #     83  sIceLoad  vol(   0 ): 3.580E+14  Parms: SM      U1      
 Compute Stats, Diag. #    223  SIuice    vol(   0 ): 3.513E+14  Parms: UU      M1      
 Compute Stats, Diag. #    224  SIvice    vol(   0 ): 3.508E+14  Parms: VV      M1      
 Compute Stats, Diag. #    225  SItaux    vol(   0 ): 3.513E+14  Parms: UU      U1      
 Compute Stats, Diag. #    226  SItauy    vol(   0 ): 3.508E+14  Parms: VV      U1      
 cg2d: Sum(rhs),rhsMax =  -3.34377434332952E+01  2.84551518894335E-01
(PID.TID 0000.0001)      cg2d_init_res =   4.47275833414061E-02
(PID.TID 0000.0001)      cg2d_iters(min,last) =      -1      24
(PID.TID 0000.0001)      cg2d_last_res =   2.59142279069707E-05
(PID.TID 0000.0001) // =======================================================
(PID.TID 0000.0001) // Begin MONITOR dynamic field statistics
(PID.TID 0000.0001) // =======================================================
(PID.TID 0000.0001) %MON time_tsnumber                =                   968
(PID.TID 0000.0001) %MON time_secondsf                =   8.7120000000000E+05
(PID.TID 0000.0001) %MON dynstat_eta_max              =   1.0161796249021E+00
(PID.TID 0000.0001) %MON dynstat_eta_min              =  -1.8122691649783E+00
(PID.TID 0000.0001) %MON dynstat_eta_mean             =   1.0577426178619E-03
(PID.TID 0000.0001) %MON dynstat_eta_sd               =   6.2351324783930E-01
(PID.TID 0000.0001) %MON dynstat_eta_del2             =   5.0358083271332E-05
(PID.TID 0000.0001) %MON dynstat_uvel_max             =   7.0365184113190E-01
(PID.TID 0000.0001) %MON dynstat_uvel_min             =  -8.4543515274720E-01
(PID.TID 0000.0001) %MON dynstat_uvel_mean            =   1.2587439744612E-03
(PID.TID 0000.0001) %MON dynstat_uvel_sd              =   1.7912759767195E-02
(PID.TID 0000.0001) %MON dynstat_uvel_del2            =   7.1563103981509E-06
(PID.TID 0000.0001) %MON dynstat_vvel_max             =   5.7501881459579E-01
(PID.TID 0000.0001) %MON dynstat_vvel_min             =  -9.3470257917176E-01
(PID.TID 0000.0001) %MON dynstat_vvel_mean            =   1.0014684523914E-03
(PID.TID 0000.0001) %MON dynstat_vvel_sd              =   1.9308081163546E-02
(PID.TID 0000.0001) %MON dynstat_vvel_del2            =   7.2876957164565E-06
(PID.TID 0000.0001) %MON dynstat_wvel_max             =   2.8167955628359E-04
(PID.TID 0000.0001) %MON dynstat_wvel_min             =  -7.4794555405996E-04
(PID.TID 0000.0001) %MON dynstat_wvel_mean            =  -3.9567481460914E-09
(PID.TID 0000.0001) %MON dynstat_wvel_sd              =   1.7148376004373E-05
(PID.TID 0000.0001) %MON dynstat_wvel_del2            =   1.3967326978597E-08
(PID.TID 0000.0001) %MON dynstat_theta_max            =   3.1796096714219E+01
(PID.TID 0000.0001) %MON dynstat_theta_min            =  -2.0397091262228E+00
(PID.TID 0000.0001) %MON dynstat_theta_mean           =   3.5901874300873E+00
(PID.TID 0000.0001) %MON dynstat_theta_sd             =   4.4367984674369E+00
(PID.TID 0000.0001) %MON dynstat_theta_del2           =   9.0727418985869E-05
(PID.TID 0000.0001) %MON dynstat_salt_max             =   4.0711543115738E+01
(PID.TID 0000.0001) %MON dynstat_salt_min             =   5.2655213851474E+00
(PID.TID 0000.0001) %MON dynstat_salt_mean            =   3.4725562369439E+01
(PID.TID 0000.0001) %MON dynstat_salt_sd              =   3.7710068490208E-01
(PID.TID 0000.0001) %MON dynstat_salt_del2            =   3.5239448312791E-05
(PID.TID 0000.0001) %MON dynstat_sst_max              =   3.1796084177341E+01
(PID.TID 0000.0001) %MON dynstat_sst_min              =  -1.8105564473426E+00
(PID.TID 0000.0001) %MON dynstat_sst_mean             =   1.8463690833465E+01
(PID.TID 0000.0001) %MON dynstat_sst_sd               =   1.0281633003347E+01
(PID.TID 0000.0001) %MON dynstat_sst_del2             =   7.9472278931918E-04
(PID.TID 0000.0001) %MON dynstat_sss_max              =   3.9098772058752E+01
(PID.TID 0000.0001) %MON dynstat_sss_min              =   5.2655213851474E+00
(PID.TID 0000.0001) %MON dynstat_sss_mean             =   3.4700841563921E+01
(PID.TID 0000.0001) %MON dynstat_sss_sd               =   1.1802101465174E+00
(PID.TID 0000.0001) %MON dynstat_sss_del2             =   1.0756399075000E-03
(PID.TID 0000.0001) %MON forcing_qnet_max             =   1.1891537173573E+03
(PID.TID 0000.0001) %MON forcing_qnet_min             =  -6.7311006588969E+02
(PID.TID 0000.0001) %MON forcing_qnet_mean            =  -3.0058194780101E+01
(PID.TID 0000.0001) %MON forcing_qnet_sd              =   2.1728537133426E+02
(PID.TID 0000.0001) %MON forcing_qnet_del2            =   3.3384540423351E-01
(PID.TID 0000.0001) %MON forcing_qsw_max              =   0.0000000000000E+00
(PID.TID 0000.0001) %MON forcing_qsw_min              =  -1.0934554884253E+02
(PID.TID 0000.0001) %MON forcing_qsw_mean             =  -2.3165804632008E+01
(PID.TID 0000.0001) %MON forcing_qsw_sd               =   3.1472608498529E+01
(PID.TID 0000.0001) %MON forcing_qsw_del2             =   1.9102791614814E-02
(PID.TID 0000.0001) %MON forcing_empmr_max            =   1.4619955327362E-03
(PID.TID 0000.0001) %MON forcing_empmr_min            =  -6.7290402948856E-02
(PID.TID 0000.0001) %MON forcing_empmr_mean           =  -8.3400825087432E-07
(PID.TID 0000.0001) %MON forcing_empmr_sd             =   2.8699907770991E-04
(PID.TID 0000.0001) %MON forcing_empmr_del2           =   2.8908082490220E-06
(PID.TID 0000.0001) %MON forcing_fu_max               =   8.5564061999321E-01
(PID.TID 0000.0001) %MON forcing_fu_min               =  -1.0389816164970E+00
(PID.TID 0000.0001) %MON forcing_fu_mean              =  -1.4190222333454E-03
(PID.TID 0000.0001) %MON forcing_fu_sd                =   1.0771017487910E-01
(PID.TID 0000.0001) %MON forcing_fu_del2              =   1.6387527305597E-04
(PID.TID 0000.0001) %MON forcing_fv_max               =   8.4878984093666E-01
(PID.TID 0000.0001) %MON forcing_fv_min               =  -7.2901785373688E-01
(PID.TID 0000.0001) %MON forcing_fv_mean              =  -7.5113629915961E-03
(PID.TID 0000.0001) %MON forcing_fv_sd                =   1.1207478407307E-01
(PID.TID 0000.0001) %MON forcing_fv_del2              =   1.4387719917478E-04
(PID.TID 0000.0001) %MON trAdv_CFL_u_max              =   1.1301801217226E-02
(PID.TID 0000.0001) %MON trAdv_CFL_v_max              =   1.3654838002723E-02
(PID.TID 0000.0001) %MON trAdv_CFL_w_max              =   2.2055316694174E-02
(PID.TID 0000.0001) %MON advcfl_uvel_max              =   9.0601223394039E-03
(PID.TID 0000.0001) %MON advcfl_vvel_max              =   1.1558033780203E-02
(PID.TID 0000.0001) %MON advcfl_wvel_max              =   1.8800192171786E-02
(PID.TID 0000.0001) %MON advcfl_W_hf_max              =   1.9716544563296E-02
(PID.TID 0000.0001) %MON pe_b_mean                    =   5.1138828592649E-04
(PID.TID 0000.0001) %MON ke_max                       =   4.5745976850022E-01
(PID.TID 0000.0001) %MON ke_mean                      =   3.3573186465573E-04
(PID.TID 0000.0001) %MON ke_vol                       =   1.3349982553647E+18
(PID.TID 0000.0001) %MON vort_r_min                   =  -8.5690881984484E-06
(PID.TID 0000.0001) %MON vort_r_max                   =   1.1595866371872E-05
(PID.TID 0000.0001) %MON vort_a_mean                  =  -1.9727864647440E-05
(PID.TID 0000.0001) %MON vort_a_sd                    =   7.4542949844769E-05
(PID.TID 0000.0001) %MON vort_p_mean                  =  -2.1760527779569E-05
(PID.TID 0000.0001) %MON vort_p_sd                    =   9.7245898181840E-05
(PID.TID 0000.0001) %MON surfExpan_theta_mean         =   3.9207650441701E-09
(PID.TID 0000.0001) %MON surfExpan_salt_mean          =   6.2524449672292E-08
(PID.TID 0000.0001) // =======================================================
(PID.TID 0000.0001) // End MONITOR dynamic field statistics
(PID.TID 0000.0001) // =======================================================
(PID.TID 0000.0001) // =======================================================
(PID.TID 0000.0001) // Begin MONITOR SEAICE statistics
(PID.TID 0000.0001) // =======================================================
(PID.TID 0000.0001) %MON seaice_tsnumber              =                   968
(PID.TID 0000.0001) %MON seaice_time_sec              =   8.7120000000000E+05
(PID.TID 0000.0001) %MON seaice_uice_max              =   4.0000000000000E-01
(PID.TID 0000.0001) %MON seaice_uice_min              =  -4.0000000000000E-01
(PID.TID 0000.0001) %MON seaice_uice_mean             =  -8.3054598624025E-03
(PID.TID 0000.0001) %MON seaice_uice_sd               =   1.9802383574176E-01
(PID.TID 0000.0001) %MON seaice_uice_del2             =   2.2931571122150E-04
(PID.TID 0000.0001) %MON seaice_vice_max              =   4.0000000000000E-01
(PID.TID 0000.0001) %MON seaice_vice_min              =  -4.0000000000000E-01
(PID.TID 0000.0001) %MON seaice_vice_mean             =  -2.1960776359499E-02
(PID.TID 0000.0001) %MON seaice_vice_sd               =   2.1302038025672E-01
(PID.TID 0000.0001) %MON seaice_vice_del2             =   2.3932563818061E-04
(PID.TID 0000.0001) %MON seaice_area_max              =   9.9999999813735E-01
(PID.TID 0000.0001) %MON seaice_area_min              =   0.0000000000000E+00
(PID.TID 0000.0001) %MON seaice_area_mean             =   6.5100420176080E-02
(PID.TID 0000.0001) %MON seaice_area_sd               =   2.2852089679656E-01
(PID.TID 0000.0001) %MON seaice_area_del2             =   3.8092161335628E-04
(PID.TID 0000.0001) %MON seaice_heff_max              =   2.4944438817794E+01
(PID.TID 0000.0001) %MON seaice_heff_min              =   0.0000000000000E+00
(PID.TID 0000.0001) %MON seaice_heff_mean             =   2.1186860366449E-01
(PID.TID 0000.0001) %MON seaice_heff_sd               =   1.0658781876414E+00
(PID.TID 0000.0001) %MON seaice_heff_del2             =   3.8242132302973E-03
(PID.TID 0000.0001) %MON seaice_hsnow_max             =   8.2391499067890E+00
(PID.TID 0000.0001) %MON seaice_hsnow_min             =   0.0000000000000E+00
(PID.TID 0000.0001) %MON seaice_hsnow_mean            =   2.3858445138921E-02
(PID.TID 0000.0001) %MON seaice_hsnow_sd              =   1.5584194289230E-01
(PID.TID 0000.0001) %MON seaice_hsnow_del2            =   1.2363215154360E-03
(PID.TID 0000.0001) // =======================================================
(PID.TID 0000.0001) // End MONITOR SEAICE statistics
(PID.TID 0000.0001) // =======================================================
 Computing Diagnostic #     86  oceQnet      Counter:       4   Parms: SM      U1      
 Computing Diagnostic #     87  oceQsw       Counter:       4   Parms: SM      U1      
 Computing Diagnostic #     84  oceFWflx     Counter:       4   Parms: SM      U1      
 Computing Diagnostic #     85  oceSflux     Counter:       4   Parms: SM      U1      
 Computing Diagnostic #     80  oceTAUX      Counter:       4   Parms: UU      U1      
           Vector  Mate for  oceTAUX      Diagnostic #     81  oceTAUY  exists 
 Computing Diagnostic #     81  oceTAUY      Counter:       4   Parms: VV      U1      
           Vector  Mate for  oceTAUY      Diagnostic #     80  oceTAUX  exists 
 Computing Diagnostic #     26  THETA        Counter:       4   Parms: SMR     MR      
 Computing Diagnostic #     27  SALT         Counter:       4   Parms: SMR     MR      
 Computing Diagnostic #     30  UVEL         Counter:       4   Parms: UUR     MR      
           Vector  Mate for  UVEL         Diagnostic #     31  VVEL     exists 
 Computing Diagnostic #     31  VVEL         Counter:       4   Parms: VVR     MR      
           Vector  Mate for  VVEL         Diagnostic #     30  UVEL     exists 
 Computing Diagnostic #    214  SIarea       Counter:       4   Parms: SM      M1      
 Computing Diagnostic #    217  SIheff       Counter:       4   Parms: SM      M1      
 Computing Diagnostic #    219  SIhsnow      Counter:       4   Parms: SM      M1      
 Computing Diagnostic #     83  sIceLoad     Counter:       4   Parms: SM      U1      
 Computing Diagnostic #    223  SIuice       Counter:       4   Parms: UU      M1      
           Vector  Mate for  SIuice       Diagnostic #    224  SIvice   exists 
 Computing Diagnostic #    224  SIvice       Counter:       4   Parms: VV      M1      
           Vector  Mate for  SIvice       Diagnostic #    223  SIuice   exists 
 Computing Diagnostic #    225  SItaux       Counter:       4   Parms: UU      U1      
           Vector  Mate for  SItaux       Diagnostic #    226  SItauy   exists 
 Computing Diagnostic #    226  SItauy       Counter:       4   Parms: VV      U1      
           Vector  Mate for  SItauy       Diagnostic #    225  SItaux   exists 
 Computing Diagnostic #    285  SIareaN      Counter:       4   Parms: SM      MX      
 Computing Diagnostic #    284  SIheffN      Counter:       4   Parms: SM      MX      
 Computing Diagnostic #    286  SIhsnowN     Counter:       4   Parms: SM      MX      
 Compute Stats, Diag. #    214  SIarea    vol(   0 ): 3.580E+14  Parms: SM      M1      
 Compute Stats, Diag. #    217  SIheff    vol(   0 ): 3.580E+14  Parms: SM      M1      
 Compute Stats, Diag. #    219  SIhsnow   vol(   0 ): 3.580E+14  Parms: SM      M1      
 Compute Stats, Diag. #     83  sIceLoad  vol(   0 ): 3.580E+14  Parms: SM      U1      
 Compute Stats, Diag. #    223  SIuice    vol(   0 ): 3.513E+14  Parms: UU      M1      
 Compute Stats, Diag. #    224  SIvice    vol(   0 ): 3.508E+14  Parms: VV      M1      
 Compute Stats, Diag. #    225  SItaux    vol(   0 ): 3.513E+14  Parms: UU      U1      
 Compute Stats, Diag. #    226  SItauy    vol(   0 ): 3.508E+14  Parms: VV      U1      
 cg2d: Sum(rhs),rhsMax =  -3.34548375699360E+01  2.84505324280269E-01
 Compute Stats, Diag. #    214  SIarea    vol(   0 ): 3.580E+14  Parms: SM      M1      
 Compute Stats, Diag. #    217  SIheff    vol(   0 ): 3.580E+14  Parms: SM      M1      
 Compute Stats, Diag. #    219  SIhsnow   vol(   0 ): 3.580E+14  Parms: SM      M1      
 Compute Stats, Diag. #     83  sIceLoad  vol(   0 ): 3.580E+14  Parms: SM      U1      
 Compute Stats, Diag. #    223  SIuice    vol(   0 ): 3.513E+14  Parms: UU      M1      
 Compute Stats, Diag. #    224  SIvice    vol(   0 ): 3.508E+14  Parms: VV      M1      
 Compute Stats, Diag. #    225  SItaux    vol(   0 ): 3.513E+14  Parms: UU      U1      
 Compute Stats, Diag. #    226  SItauy    vol(   0 ): 3.508E+14  Parms: VV      U1      
 cg2d: Sum(rhs),rhsMax =  -3.34738888785260E+01  2.84456001511808E-01
 Compute Stats, Diag. #    214  SIarea    vol(   0 ): 3.580E+14  Parms: SM      M1      
 Compute Stats, Diag. #    217  SIheff    vol(   0 ): 3.580E+14  Parms: SM      M1      
 Compute Stats, Diag. #    219  SIhsnow   vol(   0 ): 3.580E+14  Parms: SM      M1      
 Compute Stats, Diag. #     83  sIceLoad  vol(   0 ): 3.580E+14  Parms: SM      U1      
 Compute Stats, Diag. #    223  SIuice    vol(   0 ): 3.513E+14  Parms: UU      M1      
 Compute Stats, Diag. #    224  SIvice    vol(   0 ): 3.508E+14  Parms: VV      M1      
 Compute Stats, Diag. #    225  SItaux    vol(   0 ): 3.513E+14  Parms: UU      U1      
 Compute Stats, Diag. #    226  SItauy    vol(   0 ): 3.508E+14  Parms: VV      U1      
 cg2d: Sum(rhs),rhsMax =  -3.34871853864101E+01  2.84404175544563E-01
 Compute Stats, Diag. #    214  SIarea    vol(   0 ): 3.580E+14  Parms: SM      M1      
 Compute Stats, Diag. #    217  SIheff    vol(   0 ): 3.580E+14  Parms: SM      M1      
 Compute Stats, Diag. #    219  SIhsnow   vol(   0 ): 3.580E+14  Parms: SM      M1      
 Compute Stats, Diag. #     83  sIceLoad  vol(   0 ): 3.580E+14  Parms: SM      U1      
 Compute Stats, Diag. #    223  SIuice    vol(   0 ): 3.513E+14  Parms: UU      M1      
 Compute Stats, Diag. #    224  SIvice    vol(   0 ): 3.508E+14  Parms: VV      M1      
 Compute Stats, Diag. #    225  SItaux    vol(   0 ): 3.513E+14  Parms: UU      U1      
 Compute Stats, Diag. #    226  SItauy    vol(   0 ): 3.508E+14  Parms: VV      U1      
 cg2d: Sum(rhs),rhsMax =  -3.35008121517891E+01  2.84349968965054E-01
 Computing Diagnostic #     86  oceQnet      Counter:       4   Parms: SM      U1      
 Computing Diagnostic #     87  oceQsw       Counter:       4   Parms: SM      U1      
 Computing Diagnostic #     84  oceFWflx     Counter:       4   Parms: SM      U1      
 Computing Diagnostic #     85  oceSflux     Counter:       4   Parms: SM      U1      
 Computing Diagnostic #     80  oceTAUX      Counter:       4   Parms: UU      U1      
           Vector  Mate for  oceTAUX      Diagnostic #     81  oceTAUY  exists 
 Computing Diagnostic #     81  oceTAUY      Counter:       4   Parms: VV      U1      
           Vector  Mate for  oceTAUY      Diagnostic #     80  oceTAUX  exists 
 Computing Diagnostic #     26  THETA        Counter:       4   Parms: SMR     MR      
 Computing Diagnostic #     27  SALT         Counter:       4   Parms: SMR     MR      
 Computing Diagnostic #     30  UVEL         Counter:       4   Parms: UUR     MR      
           Vector  Mate for  UVEL         Diagnostic #     31  VVEL     exists 
 Computing Diagnostic #     31  VVEL         Counter:       4   Parms: VVR     MR      
           Vector  Mate for  VVEL         Diagnostic #     30  UVEL     exists 
 Computing Diagnostic #    214  SIarea       Counter:       4   Parms: SM      M1      
 Computing Diagnostic #    217  SIheff       Counter:       4   Parms: SM      M1      
 Computing Diagnostic #    219  SIhsnow      Counter:       4   Parms: SM      M1      
 Computing Diagnostic #     83  sIceLoad     Counter:       4   Parms: SM      U1      
 Computing Diagnostic #    223  SIuice       Counter:       4   Parms: UU      M1      
           Vector  Mate for  SIuice       Diagnostic #    224  SIvice   exists 
 Computing Diagnostic #    224  SIvice       Counter:       4   Parms: VV      M1      
           Vector  Mate for  SIvice       Diagnostic #    223  SIuice   exists 
 Computing Diagnostic #    225  SItaux       Counter:       4   Parms: UU      U1      
           Vector  Mate for  SItaux       Diagnostic #    226  SItauy   exists 
 Computing Diagnostic #    226  SItauy       Counter:       4   Parms: VV      U1      
           Vector  Mate for  SItauy       Diagnostic #    225  SItaux   exists 
 Computing Diagnostic #    285  SIareaN      Counter:       4   Parms: SM      MX      
 Computing Diagnostic #    284  SIheffN      Counter:       4   Parms: SM      MX      
 Computing Diagnostic #    286  SIhsnowN     Counter:       4   Parms: SM      MX      
 Compute Stats, Diag. #    214  SIarea    vol(   0 ): 3.580E+14  Parms: SM      M1      
 Compute Stats, Diag. #    217  SIheff    vol(   0 ): 3.580E+14  Parms: SM      M1      
 Compute Stats, Diag. #    219  SIhsnow   vol(   0 ): 3.580E+14  Parms: SM      M1      
 Compute Stats, Diag. #     83  sIceLoad  vol(   0 ): 3.580E+14  Parms: SM      U1      
 Compute Stats, Diag. #    223  SIuice    vol(   0 ): 3.513E+14  Parms: UU      M1      
 Compute Stats, Diag. #    224  SIvice    vol(   0 ): 3.508E+14  Parms: VV      M1      
 Compute Stats, Diag. #    225  SItaux    vol(   0 ): 3.513E+14  Parms: UU      U1      
 Compute Stats, Diag. #    226  SItauy    vol(   0 ): 3.508E+14  Parms: VV      U1      
 cg2d: Sum(rhs),rhsMax =  -3.35222124310823E+01  2.84294467728504E-01
 Compute Stats, Diag. #    214  SIarea    vol(   0 ): 3.580E+14  Parms: SM      M1      
 Compute Stats, Diag. #    217  SIheff    vol(   0 ): 3.580E+14  Parms: SM      M1      
 Compute Stats, Diag. #    219  SIhsnow   vol(   0 ): 3.580E+14  Parms: SM      M1      
 Compute Stats, Diag. #     83  sIceLoad  vol(   0 ): 3.580E+14  Parms: SM      U1      
 Compute Stats, Diag. #    223  SIuice    vol(   0 ): 3.513E+14  Parms: UU      M1      
 Compute Stats, Diag. #    224  SIvice    vol(   0 ): 3.508E+14  Parms: VV      M1      
 Compute Stats, Diag. #    225  SItaux    vol(   0 ): 3.513E+14  Parms: UU      U1      
 Compute Stats, Diag. #    226  SItauy    vol(   0 ): 3.508E+14  Parms: VV      U1      
 cg2d: Sum(rhs),rhsMax =  -3.35367848310663E+01  2.84237592015042E-01
 Compute Stats, Diag. #    214  SIarea    vol(   0 ): 3.580E+14  Parms: SM      M1      
 Compute Stats, Diag. #    217  SIheff    vol(   0 ): 3.580E+14  Parms: SM      M1      
 Compute Stats, Diag. #    219  SIhsnow   vol(   0 ): 3.580E+14  Parms: SM      M1      
 Compute Stats, Diag. #     83  sIceLoad  vol(   0 ): 3.580E+14  Parms: SM      U1      
 Compute Stats, Diag. #    223  SIuice    vol(   0 ): 3.513E+14  Parms: UU      M1      
 Compute Stats, Diag. #    224  SIvice    vol(   0 ): 3.508E+14  Parms: VV      M1      
 Compute Stats, Diag. #    225  SItaux    vol(   0 ): 3.513E+14  Parms: UU      U1      
 Compute Stats, Diag. #    226  SItauy    vol(   0 ): 3.508E+14  Parms: VV      U1      
 cg2d: Sum(rhs),rhsMax =  -3.35532984113100E+01  2.84180033508540E-01
 Compute Stats, Diag. #    214  SIarea    vol(   0 ): 3.580E+14  Parms: SM      M1      
 Compute Stats, Diag. #    217  SIheff    vol(   0 ): 3.580E+14  Parms: SM      M1      
 Compute Stats, Diag. #    219  SIhsnow   vol(   0 ): 3.580E+14  Parms: SM      M1      
 Compute Stats, Diag. #     83  sIceLoad  vol(   0 ): 3.580E+14  Parms: SM      U1      
 Compute Stats, Diag. #    223  SIuice    vol(   0 ): 3.513E+14  Parms: UU      M1      
 Compute Stats, Diag. #    224  SIvice    vol(   0 ): 3.508E+14  Parms: VV      M1      
 Compute Stats, Diag. #    225  SItaux    vol(   0 ): 3.513E+14  Parms: UU      U1      
 Compute Stats, Diag. #    226  SItauy    vol(   0 ): 3.508E+14  Parms: VV      U1      
 cg2d: Sum(rhs),rhsMax =  -3.35695158392961E+01  2.84122048107957E-01
(PID.TID 0000.0001)      cg2d_init_res =   4.27616631514425E-02
(PID.TID 0000.0001)      cg2d_iters(min,last) =      -1      24
(PID.TID 0000.0001)      cg2d_last_res =   2.24136848280795E-05
(PID.TID 0000.0001) // =======================================================
(PID.TID 0000.0001) // Begin MONITOR dynamic field statistics
(PID.TID 0000.0001) // =======================================================
(PID.TID 0000.0001) %MON time_tsnumber                =                   976
(PID.TID 0000.0001) %MON time_secondsf                =   8.7840000000000E+05
(PID.TID 0000.0001) %MON dynstat_eta_max              =   1.0161269464460E+00
(PID.TID 0000.0001) %MON dynstat_eta_min              =  -1.8105109243139E+00
(PID.TID 0000.0001) %MON dynstat_eta_mean             =   1.0619109999169E-03
(PID.TID 0000.0001) %MON dynstat_eta_sd               =   6.2331856844013E-01
(PID.TID 0000.0001) %MON dynstat_eta_del2             =   5.0347390172348E-05
(PID.TID 0000.0001) %MON dynstat_uvel_max             =   6.9726259656884E-01
(PID.TID 0000.0001) %MON dynstat_uvel_min             =  -8.5515806165437E-01
(PID.TID 0000.0001) %MON dynstat_uvel_mean            =   1.2609015862656E-03
(PID.TID 0000.0001) %MON dynstat_uvel_sd              =   1.7892088206042E-02
(PID.TID 0000.0001) %MON dynstat_uvel_del2            =   7.1410389080709E-06
(PID.TID 0000.0001) %MON dynstat_vvel_max             =   5.7571348983979E-01
(PID.TID 0000.0001) %MON dynstat_vvel_min             =  -9.4451063141840E-01
(PID.TID 0000.0001) %MON dynstat_vvel_mean            =   9.9665233553161E-04
(PID.TID 0000.0001) %MON dynstat_vvel_sd              =   1.9295469579176E-02
(PID.TID 0000.0001) %MON dynstat_vvel_del2            =   7.2634624480360E-06
(PID.TID 0000.0001) %MON dynstat_wvel_max             =   2.8230194892805E-04
(PID.TID 0000.0001) %MON dynstat_wvel_min             =  -7.4533714583952E-04
(PID.TID 0000.0001) %MON dynstat_wvel_mean            =  -3.4617810848318E-09
(PID.TID 0000.0001) %MON dynstat_wvel_sd              =   1.6982795500666E-05
(PID.TID 0000.0001) %MON dynstat_wvel_del2            =   1.3904661128155E-08
(PID.TID 0000.0001) %MON dynstat_theta_max            =   3.1787264695594E+01
(PID.TID 0000.0001) %MON dynstat_theta_min            =  -2.0397032094337E+00
(PID.TID 0000.0001) %MON dynstat_theta_mean           =   3.5901970949569E+00
(PID.TID 0000.0001) %MON dynstat_theta_sd             =   4.4368597039631E+00
(PID.TID 0000.0001) %MON dynstat_theta_del2           =   9.0701223592526E-05
(PID.TID 0000.0001) %MON dynstat_salt_max             =   4.0711543204782E+01
(PID.TID 0000.0001) %MON dynstat_salt_min             =   5.3622724026237E+00
(PID.TID 0000.0001) %MON dynstat_salt_mean            =   3.4725562322875E+01
(PID.TID 0000.0001) %MON dynstat_salt_sd              =   3.7710219481577E-01
(PID.TID 0000.0001) %MON dynstat_salt_del2            =   3.5211224701273E-05
(PID.TID 0000.0001) %MON dynstat_sst_max              =   3.1787264695594E+01
(PID.TID 0000.0001) %MON dynstat_sst_min              =  -1.8116232938213E+00
(PID.TID 0000.0001) %MON dynstat_sst_mean             =   1.8465780550339E+01
(PID.TID 0000.0001) %MON dynstat_sst_sd               =   1.0283328371687E+01
(PID.TID 0000.0001) %MON dynstat_sst_del2             =   7.9663881058831E-04
(PID.TID 0000.0001) %MON dynstat_sss_max              =   3.9098705300329E+01
(PID.TID 0000.0001) %MON dynstat_sss_min              =   5.3622724026237E+00
(PID.TID 0000.0001) %MON dynstat_sss_mean             =   3.4700894272973E+01
(PID.TID 0000.0001) %MON dynstat_sss_sd               =   1.1804520543415E+00
(PID.TID 0000.0001) %MON dynstat_sss_del2             =   1.0741028828162E-03
(PID.TID 0000.0001) %MON forcing_qnet_max             =   8.4179870605469E+02
(PID.TID 0000.0001) %MON forcing_qnet_min             =  -6.8572375488281E+02
(PID.TID 0000.0001) %MON forcing_qnet_mean            =  -1.2193268820335E+01
(PID.TID 0000.0001) %MON forcing_qnet_sd              =   2.0321321692194E+02
(PID.TID 0000.0001) %MON forcing_qnet_del2            =   3.3176376824338E-01
(PID.TID 0000.0001) %MON forcing_qsw_max              =   0.0000000000000E+00
(PID.TID 0000.0001) %MON forcing_qsw_min              =  -1.1000164562120E+02
(PID.TID 0000.0001) %MON forcing_qsw_mean             =  -2.1525596334347E+01
(PID.TID 0000.0001) %MON forcing_qsw_sd               =   3.0420729324572E+01
(PID.TID 0000.0001) %MON forcing_qsw_del2             =   2.0824292830416E-02
(PID.TID 0000.0001) %MON forcing_empmr_max            =   1.9429525127634E-03
(PID.TID 0000.0001) %MON forcing_empmr_min            =  -4.8131268471479E-02
(PID.TID 0000.0001) %MON forcing_empmr_mean           =  -5.8654033849645E-07
(PID.TID 0000.0001) %MON forcing_empmr_sd             =   2.4794007620930E-04
(PID.TID 0000.0001) %MON forcing_empmr_del2           =   2.4356478459812E-06
(PID.TID 0000.0001) %MON forcing_fu_max               =   8.9061760902405E-01
(PID.TID 0000.0001) %MON forcing_fu_min               =  -1.0397083759308E+00
(PID.TID 0000.0001) %MON forcing_fu_mean              =  -1.3210389023686E-03
(PID.TID 0000.0001) %MON forcing_fu_sd                =   1.0669924159952E-01
(PID.TID 0000.0001) %MON forcing_fu_del2              =   1.6017034142432E-04
(PID.TID 0000.0001) %MON forcing_fv_max               =   8.6306360363960E-01
(PID.TID 0000.0001) %MON forcing_fv_min               =  -7.7451452612877E-01
(PID.TID 0000.0001) %MON forcing_fv_mean              =  -7.4999402260375E-03
(PID.TID 0000.0001) %MON forcing_fv_sd                =   1.1128633602930E-01
(PID.TID 0000.0001) %MON forcing_fv_del2              =   1.4325356842210E-04
(PID.TID 0000.0001) %MON trAdv_CFL_u_max              =   1.1224889807832E-02
(PID.TID 0000.0001) %MON trAdv_CFL_v_max              =   1.3534968909554E-02
(PID.TID 0000.0001) %MON trAdv_CFL_w_max              =   2.1152077505701E-02
(PID.TID 0000.0001) %MON advcfl_uvel_max              =   9.0763652853954E-03
(PID.TID 0000.0001) %MON advcfl_vvel_max              =   1.1571996940595E-02
(PID.TID 0000.0001) %MON advcfl_wvel_max              =   1.9079511775825E-02
(PID.TID 0000.0001) %MON advcfl_W_hf_max              =   2.0009492702728E-02
(PID.TID 0000.0001) %MON pe_b_mean                    =   5.1106900642481E-04
(PID.TID 0000.0001) %MON ke_max                       =   4.6552146295005E-01
(PID.TID 0000.0001) %MON ke_mean                      =   3.3513823501733E-04
(PID.TID 0000.0001) %MON ke_vol                       =   1.3349982569345E+18
(PID.TID 0000.0001) %MON vort_r_min                   =  -9.3991130894412E-06
(PID.TID 0000.0001) %MON vort_r_max                   =   1.1681430455733E-05
(PID.TID 0000.0001) %MON vort_a_mean                  =  -1.9727864647440E-05
(PID.TID 0000.0001) %MON vort_a_sd                    =   7.4542950865263E-05
(PID.TID 0000.0001) %MON vort_p_mean                  =  -2.1760527696023E-05
(PID.TID 0000.0001) %MON vort_p_sd                    =   9.7245910957225E-05
(PID.TID 0000.0001) %MON surfExpan_theta_mean         =   2.4191818356935E-08
(PID.TID 0000.0001) %MON surfExpan_salt_mean          =   5.5162267071681E-08
(PID.TID 0000.0001) // =======================================================
(PID.TID 0000.0001) // End MONITOR dynamic field statistics
(PID.TID 0000.0001) // =======================================================
(PID.TID 0000.0001) // =======================================================
(PID.TID 0000.0001) // Begin MONITOR SEAICE statistics
(PID.TID 0000.0001) // =======================================================
(PID.TID 0000.0001) %MON seaice_tsnumber              =                   976
(PID.TID 0000.0001) %MON seaice_time_sec              =   8.7840000000000E+05
(PID.TID 0000.0001) %MON seaice_uice_max              =   4.0000000000000E-01
(PID.TID 0000.0001) %MON seaice_uice_min              =  -4.0000000000000E-01
(PID.TID 0000.0001) %MON seaice_uice_mean             =  -8.3054598624025E-03
(PID.TID 0000.0001) %MON seaice_uice_sd               =   1.9802383574176E-01
(PID.TID 0000.0001) %MON seaice_uice_del2             =   2.2931571122150E-04
(PID.TID 0000.0001) %MON seaice_vice_max              =   4.0000000000000E-01
(PID.TID 0000.0001) %MON seaice_vice_min              =  -4.0000000000000E-01
(PID.TID 0000.0001) %MON seaice_vice_mean             =  -2.1960776359499E-02
(PID.TID 0000.0001) %MON seaice_vice_sd               =   2.1302038025672E-01
(PID.TID 0000.0001) %MON seaice_vice_del2             =   2.3932563818061E-04
(PID.TID 0000.0001) %MON seaice_area_max              =   9.9999999813735E-01
(PID.TID 0000.0001) %MON seaice_area_min              =   0.0000000000000E+00
(PID.TID 0000.0001) %MON seaice_area_mean             =   6.5076608837678E-02
(PID.TID 0000.0001) %MON seaice_area_sd               =   2.2847947313526E-01
(PID.TID 0000.0001) %MON seaice_area_del2             =   3.8037989634920E-04
(PID.TID 0000.0001) %MON seaice_heff_max              =   2.4939664643491E+01
(PID.TID 0000.0001) %MON seaice_heff_min              =   0.0000000000000E+00
(PID.TID 0000.0001) %MON seaice_heff_mean             =   2.1184493397816E-01
(PID.TID 0000.0001) %MON seaice_heff_sd               =   1.0658564341888E+00
(PID.TID 0000.0001) %MON seaice_heff_del2             =   3.8235514783416E-03
(PID.TID 0000.0001) %MON seaice_hsnow_max             =   8.2375809401565E+00
(PID.TID 0000.0001) %MON seaice_hsnow_min             =   0.0000000000000E+00
(PID.TID 0000.0001) %MON seaice_hsnow_mean            =   2.3853183274512E-02
(PID.TID 0000.0001) %MON seaice_hsnow_sd              =   1.5583434851649E-01
(PID.TID 0000.0001) %MON seaice_hsnow_del2            =   1.2362068703282E-03
(PID.TID 0000.0001) // =======================================================
(PID.TID 0000.0001) // End MONITOR SEAICE statistics
(PID.TID 0000.0001) // =======================================================
 Computing Diagnostic #     86  oceQnet      Counter:       4   Parms: SM      U1      
 Computing Diagnostic #     87  oceQsw       Counter:       4   Parms: SM      U1      
 Computing Diagnostic #     84  oceFWflx     Counter:       4   Parms: SM      U1      
 Computing Diagnostic #     85  oceSflux     Counter:       4   Parms: SM      U1      
 Computing Diagnostic #     80  oceTAUX      Counter:       4   Parms: UU      U1      
           Vector  Mate for  oceTAUX      Diagnostic #     81  oceTAUY  exists 
 Computing Diagnostic #     81  oceTAUY      Counter:       4   Parms: VV      U1      
           Vector  Mate for  oceTAUY      Diagnostic #     80  oceTAUX  exists 
 Computing Diagnostic #     26  THETA        Counter:       4   Parms: SMR     MR      
 Computing Diagnostic #     27  SALT         Counter:       4   Parms: SMR     MR      
 Computing Diagnostic #     30  UVEL         Counter:       4   Parms: UUR     MR      
           Vector  Mate for  UVEL         Diagnostic #     31  VVEL     exists 
 Computing Diagnostic #     31  VVEL         Counter:       4   Parms: VVR     MR      
           Vector  Mate for  VVEL         Diagnostic #     30  UVEL     exists 
 Computing Diagnostic #    214  SIarea       Counter:       4   Parms: SM      M1      
 Computing Diagnostic #    217  SIheff       Counter:       4   Parms: SM      M1      
 Computing Diagnostic #    219  SIhsnow      Counter:       4   Parms: SM      M1      
 Computing Diagnostic #     83  sIceLoad     Counter:       4   Parms: SM      U1      
 Computing Diagnostic #    223  SIuice       Counter:       4   Parms: UU      M1      
           Vector  Mate for  SIuice       Diagnostic #    224  SIvice   exists 
 Computing Diagnostic #    224  SIvice       Counter:       4   Parms: VV      M1      
           Vector  Mate for  SIvice       Diagnostic #    223  SIuice   exists 
 Computing Diagnostic #    225  SItaux       Counter:       4   Parms: UU      U1      
           Vector  Mate for  SItaux       Diagnostic #    226  SItauy   exists 
 Computing Diagnostic #    226  SItauy       Counter:       4   Parms: VV      U1      
           Vector  Mate for  SItauy       Diagnostic #    225  SItaux   exists 
 Computing Diagnostic #    285  SIareaN      Counter:       4   Parms: SM      MX      
 Computing Diagnostic #    284  SIheffN      Counter:       4   Parms: SM      MX      
 Computing Diagnostic #    286  SIhsnowN     Counter:       4   Parms: SM      MX      
 Compute Stats, Diag. #    214  SIarea    vol(   0 ): 3.580E+14  Parms: SM      M1      
 Compute Stats, Diag. #    217  SIheff    vol(   0 ): 3.580E+14  Parms: SM      M1      
 Compute Stats, Diag. #    219  SIhsnow   vol(   0 ): 3.580E+14  Parms: SM      M1      
 Compute Stats, Diag. #     83  sIceLoad  vol(   0 ): 3.580E+14  Parms: SM      U1      
 Compute Stats, Diag. #    223  SIuice    vol(   0 ): 3.513E+14  Parms: UU      M1      
 Compute Stats, Diag. #    224  SIvice    vol(   0 ): 3.508E+14  Parms: VV      M1      
 Compute Stats, Diag. #    225  SItaux    vol(   0 ): 3.513E+14  Parms: UU      U1      
 Compute Stats, Diag. #    226  SItauy    vol(   0 ): 3.508E+14  Parms: VV      U1      
 cg2d: Sum(rhs),rhsMax =  -3.35965834550006E+01  2.84064451553877E-01
 Compute Stats, Diag. #    214  SIarea    vol(   0 ): 3.580E+14  Parms: SM      M1      
 Compute Stats, Diag. #    217  SIheff    vol(   0 ): 3.580E+14  Parms: SM      M1      
 Compute Stats, Diag. #    219  SIhsnow   vol(   0 ): 3.580E+14  Parms: SM      M1      
 Compute Stats, Diag. #     83  sIceLoad  vol(   0 ): 3.580E+14  Parms: SM      U1      
 Compute Stats, Diag. #    223  SIuice    vol(   0 ): 3.513E+14  Parms: UU      M1      
 Compute Stats, Diag. #    224  SIvice    vol(   0 ): 3.508E+14  Parms: VV      M1      
 Compute Stats, Diag. #    225  SItaux    vol(   0 ): 3.513E+14  Parms: UU      U1      
 Compute Stats, Diag. #    226  SItauy    vol(   0 ): 3.508E+14  Parms: VV      U1      
 cg2d: Sum(rhs),rhsMax =  -3.36090626878983E+01  2.84007983018258E-01
 Compute Stats, Diag. #    214  SIarea    vol(   0 ): 3.580E+14  Parms: SM      M1      
 Compute Stats, Diag. #    217  SIheff    vol(   0 ): 3.580E+14  Parms: SM      M1      
 Compute Stats, Diag. #    219  SIhsnow   vol(   0 ): 3.580E+14  Parms: SM      M1      
 Compute Stats, Diag. #     83  sIceLoad  vol(   0 ): 3.580E+14  Parms: SM      U1      
 Compute Stats, Diag. #    223  SIuice    vol(   0 ): 3.513E+14  Parms: UU      M1      
 Compute Stats, Diag. #    224  SIvice    vol(   0 ): 3.508E+14  Parms: VV      M1      
 Compute Stats, Diag. #    225  SItaux    vol(   0 ): 3.513E+14  Parms: UU      U1      
 Compute Stats, Diag. #    226  SItauy    vol(   0 ): 3.508E+14  Parms: VV      U1      
 cg2d: Sum(rhs),rhsMax =  -3.36188301021475E+01  2.83952192361179E-01
 Compute Stats, Diag. #    214  SIarea    vol(   0 ): 3.580E+14  Parms: SM      M1      
 Compute Stats, Diag. #    217  SIheff    vol(   0 ): 3.580E+14  Parms: SM      M1      
 Compute Stats, Diag. #    219  SIhsnow   vol(   0 ): 3.580E+14  Parms: SM      M1      
 Compute Stats, Diag. #     83  sIceLoad  vol(   0 ): 3.580E+14  Parms: SM      U1      
 Compute Stats, Diag. #    223  SIuice    vol(   0 ): 3.513E+14  Parms: UU      M1      
 Compute Stats, Diag. #    224  SIvice    vol(   0 ): 3.508E+14  Parms: VV      M1      
 Compute Stats, Diag. #    225  SItaux    vol(   0 ): 3.513E+14  Parms: UU      U1      
 Compute Stats, Diag. #    226  SItauy    vol(   0 ): 3.508E+14  Parms: VV      U1      
 cg2d: Sum(rhs),rhsMax =  -3.36359744776849E+01  2.83897797358215E-01
 Computing Diagnostic #     86  oceQnet      Counter:       4   Parms: SM      U1      
 Computing Diagnostic #     87  oceQsw       Counter:       4   Parms: SM      U1      
 Computing Diagnostic #     84  oceFWflx     Counter:       4   Parms: SM      U1      
 Computing Diagnostic #     85  oceSflux     Counter:       4   Parms: SM      U1      
 Computing Diagnostic #     80  oceTAUX      Counter:       4   Parms: UU      U1      
           Vector  Mate for  oceTAUX      Diagnostic #     81  oceTAUY  exists 
 Computing Diagnostic #     81  oceTAUY      Counter:       4   Parms: VV      U1      
           Vector  Mate for  oceTAUY      Diagnostic #     80  oceTAUX  exists 
 Computing Diagnostic #     26  THETA        Counter:       4   Parms: SMR     MR      
 Computing Diagnostic #     27  SALT         Counter:       4   Parms: SMR     MR      
 Computing Diagnostic #     30  UVEL         Counter:       4   Parms: UUR     MR      
           Vector  Mate for  UVEL         Diagnostic #     31  VVEL     exists 
 Computing Diagnostic #     31  VVEL         Counter:       4   Parms: VVR     MR      
           Vector  Mate for  VVEL         Diagnostic #     30  UVEL     exists 
 Computing Diagnostic #    214  SIarea       Counter:       4   Parms: SM      M1      
 Computing Diagnostic #    217  SIheff       Counter:       4   Parms: SM      M1      
 Computing Diagnostic #    219  SIhsnow      Counter:       4   Parms: SM      M1      
 Computing Diagnostic #     83  sIceLoad     Counter:       4   Parms: SM      U1      
 Computing Diagnostic #    223  SIuice       Counter:       4   Parms: UU      M1      
           Vector  Mate for  SIuice       Diagnostic #    224  SIvice   exists 
 Computing Diagnostic #    224  SIvice       Counter:       4   Parms: VV      M1      
           Vector  Mate for  SIvice       Diagnostic #    223  SIuice   exists 
 Computing Diagnostic #    225  SItaux       Counter:       4   Parms: UU      U1      
           Vector  Mate for  SItaux       Diagnostic #    226  SItauy   exists 
 Computing Diagnostic #    226  SItauy       Counter:       4   Parms: VV      U1      
           Vector  Mate for  SItauy       Diagnostic #    225  SItaux   exists 
 Computing Diagnostic #    285  SIareaN      Counter:       4   Parms: SM      MX      
 Computing Diagnostic #    284  SIheffN      Counter:       4   Parms: SM      MX      
 Computing Diagnostic #    286  SIhsnowN     Counter:       4   Parms: SM      MX      
 Compute Stats, Diag. #    214  SIarea    vol(   0 ): 3.580E+14  Parms: SM      M1      
 Compute Stats, Diag. #    217  SIheff    vol(   0 ): 3.580E+14  Parms: SM      M1      
 Compute Stats, Diag. #    219  SIhsnow   vol(   0 ): 3.580E+14  Parms: SM      M1      
 Compute Stats, Diag. #     83  sIceLoad  vol(   0 ): 3.580E+14  Parms: SM      U1      
 Compute Stats, Diag. #    223  SIuice    vol(   0 ): 3.513E+14  Parms: UU      M1      
 Compute Stats, Diag. #    224  SIvice    vol(   0 ): 3.508E+14  Parms: VV      M1      
 Compute Stats, Diag. #    225  SItaux    vol(   0 ): 3.513E+14  Parms: UU      U1      
 Compute Stats, Diag. #    226  SItauy    vol(   0 ): 3.508E+14  Parms: VV      U1      
 cg2d: Sum(rhs),rhsMax =  -3.36510905805241E+01  2.83845451381045E-01
 Compute Stats, Diag. #    214  SIarea    vol(   0 ): 3.580E+14  Parms: SM      M1      
 Compute Stats, Diag. #    217  SIheff    vol(   0 ): 3.580E+14  Parms: SM      M1      
 Compute Stats, Diag. #    219  SIhsnow   vol(   0 ): 3.580E+14  Parms: SM      M1      
 Compute Stats, Diag. #     83  sIceLoad  vol(   0 ): 3.580E+14  Parms: SM      U1      
 Compute Stats, Diag. #    223  SIuice    vol(   0 ): 3.513E+14  Parms: UU      M1      
 Compute Stats, Diag. #    224  SIvice    vol(   0 ): 3.508E+14  Parms: VV      M1      
 Compute Stats, Diag. #    225  SItaux    vol(   0 ): 3.513E+14  Parms: UU      U1      
 Compute Stats, Diag. #    226  SItauy    vol(   0 ): 3.508E+14  Parms: VV      U1      
 cg2d: Sum(rhs),rhsMax =  -3.36705525324547E+01  2.83795391738758E-01
 Compute Stats, Diag. #    214  SIarea    vol(   0 ): 3.580E+14  Parms: SM      M1      
 Compute Stats, Diag. #    217  SIheff    vol(   0 ): 3.580E+14  Parms: SM      M1      
 Compute Stats, Diag. #    219  SIhsnow   vol(   0 ): 3.580E+14  Parms: SM      M1      
 Compute Stats, Diag. #     83  sIceLoad  vol(   0 ): 3.580E+14  Parms: SM      U1      
 Compute Stats, Diag. #    223  SIuice    vol(   0 ): 3.513E+14  Parms: UU      M1      
 Compute Stats, Diag. #    224  SIvice    vol(   0 ): 3.508E+14  Parms: VV      M1      
 Compute Stats, Diag. #    225  SItaux    vol(   0 ): 3.513E+14  Parms: UU      U1      
 Compute Stats, Diag. #    226  SItauy    vol(   0 ): 3.508E+14  Parms: VV      U1      
 cg2d: Sum(rhs),rhsMax =  -3.36870989191594E+01  2.83748062861481E-01
 Compute Stats, Diag. #    214  SIarea    vol(   0 ): 3.580E+14  Parms: SM      M1      
 Compute Stats, Diag. #    217  SIheff    vol(   0 ): 3.580E+14  Parms: SM      M1      
 Compute Stats, Diag. #    219  SIhsnow   vol(   0 ): 3.580E+14  Parms: SM      M1      
 Compute Stats, Diag. #     83  sIceLoad  vol(   0 ): 3.580E+14  Parms: SM      U1      
 Compute Stats, Diag. #    223  SIuice    vol(   0 ): 3.513E+14  Parms: UU      M1      
 Compute Stats, Diag. #    224  SIvice    vol(   0 ): 3.508E+14  Parms: VV      M1      
 Compute Stats, Diag. #    225  SItaux    vol(   0 ): 3.513E+14  Parms: UU      U1      
 Compute Stats, Diag. #    226  SItauy    vol(   0 ): 3.508E+14  Parms: VV      U1      
 cg2d: Sum(rhs),rhsMax =  -3.37015823824674E+01  2.83703638284095E-01
(PID.TID 0000.0001)      cg2d_init_res =   4.34400323437955E-02
(PID.TID 0000.0001)      cg2d_iters(min,last) =      -1      23
(PID.TID 0000.0001)      cg2d_last_res =   2.55438801715141E-05
(PID.TID 0000.0001) // =======================================================
(PID.TID 0000.0001) // Begin MONITOR dynamic field statistics
(PID.TID 0000.0001) // =======================================================
(PID.TID 0000.0001) %MON time_tsnumber                =                   984
(PID.TID 0000.0001) %MON time_secondsf                =   8.8560000000000E+05
(PID.TID 0000.0001) %MON dynstat_eta_max              =   1.0159075564868E+00
(PID.TID 0000.0001) %MON dynstat_eta_min              =  -1.8085819351977E+00
(PID.TID 0000.0001) %MON dynstat_eta_mean             =   1.0660886864697E-03
(PID.TID 0000.0001) %MON dynstat_eta_sd               =   6.2313789974112E-01
(PID.TID 0000.0001) %MON dynstat_eta_del2             =   5.0426166075167E-05
(PID.TID 0000.0001) %MON dynstat_uvel_max             =   6.8791769966883E-01
(PID.TID 0000.0001) %MON dynstat_uvel_min             =  -8.5868434264610E-01
(PID.TID 0000.0001) %MON dynstat_uvel_mean            =   1.2684408882271E-03
(PID.TID 0000.0001) %MON dynstat_uvel_sd              =   1.7870570663198E-02
(PID.TID 0000.0001) %MON dynstat_uvel_del2            =   7.1221189462949E-06
(PID.TID 0000.0001) %MON dynstat_vvel_max             =   5.7575624900468E-01
(PID.TID 0000.0001) %MON dynstat_vvel_min             =  -9.4761067918293E-01
(PID.TID 0000.0001) %MON dynstat_vvel_mean            =   9.9186459149780E-04
(PID.TID 0000.0001) %MON dynstat_vvel_sd              =   1.9283996873003E-02
(PID.TID 0000.0001) %MON dynstat_vvel_del2            =   7.2356645643260E-06
(PID.TID 0000.0001) %MON dynstat_wvel_max             =   2.8414341764672E-04
(PID.TID 0000.0001) %MON dynstat_wvel_min             =  -7.4367453983638E-04
(PID.TID 0000.0001) %MON dynstat_wvel_mean            =  -3.8417798417548E-09
(PID.TID 0000.0001) %MON dynstat_wvel_sd              =   1.6823192911809E-05
(PID.TID 0000.0001) %MON dynstat_wvel_del2            =   1.3821792648157E-08
(PID.TID 0000.0001) %MON dynstat_theta_max            =   3.1795497295665E+01
(PID.TID 0000.0001) %MON dynstat_theta_min            =  -2.0396973616623E+00
(PID.TID 0000.0001) %MON dynstat_theta_mean           =   3.5901965913490E+00
(PID.TID 0000.0001) %MON dynstat_theta_sd             =   4.4368794860409E+00
(PID.TID 0000.0001) %MON dynstat_theta_del2           =   9.0670800930492E-05
(PID.TID 0000.0001) %MON dynstat_salt_max             =   4.0711543295342E+01
(PID.TID 0000.0001) %MON dynstat_salt_min             =   5.4341823693843E+00
(PID.TID 0000.0001) %MON dynstat_salt_mean            =   3.4725562288168E+01
(PID.TID 0000.0001) %MON dynstat_salt_sd              =   3.7710342304452E-01
(PID.TID 0000.0001) %MON dynstat_salt_del2            =   3.5159099338544E-05
(PID.TID 0000.0001) %MON dynstat_sst_max              =   3.1795497295665E+01
(PID.TID 0000.0001) %MON dynstat_sst_min              =  -1.8120920993214E+00
(PID.TID 0000.0001) %MON dynstat_sst_mean             =   1.8464654893493E+01
(PID.TID 0000.0001) %MON dynstat_sst_sd               =   1.0283843008066E+01
(PID.TID 0000.0001) %MON dynstat_sst_del2             =   7.9803679813348E-04
(PID.TID 0000.0001) %MON dynstat_sss_max              =   3.9098649031611E+01
(PID.TID 0000.0001) %MON dynstat_sss_min              =   5.4341823693843E+00
(PID.TID 0000.0001) %MON dynstat_sss_mean             =   3.4700921623063E+01
(PID.TID 0000.0001) %MON dynstat_sss_sd               =   1.1806244007533E+00
(PID.TID 0000.0001) %MON dynstat_sss_del2             =   1.0710835996675E-03
(PID.TID 0000.0001) %MON forcing_qnet_max             =   7.1420581054688E+02
(PID.TID 0000.0001) %MON forcing_qnet_min             =  -8.1915085513505E+02
(PID.TID 0000.0001) %MON forcing_qnet_mean            =   9.3319342151979E+00
(PID.TID 0000.0001) %MON forcing_qnet_sd              =   1.8049075792147E+02
(PID.TID 0000.0001) %MON forcing_qnet_del2            =   3.1125137224560E-01
(PID.TID 0000.0001) %MON forcing_qsw_max              =   0.0000000000000E+00
(PID.TID 0000.0001) %MON forcing_qsw_min              =  -1.1094525197034E+02
(PID.TID 0000.0001) %MON forcing_qsw_mean             =  -1.8746256771945E+01
(PID.TID 0000.0001) %MON forcing_qsw_sd               =   2.7583885664794E+01
(PID.TID 0000.0001) %MON forcing_qsw_del2             =   2.1783537580722E-02
(PID.TID 0000.0001) %MON forcing_empmr_max            =   1.6033258289099E-03
(PID.TID 0000.0001) %MON forcing_empmr_min            =  -5.1699951291084E-02
(PID.TID 0000.0001) %MON forcing_empmr_mean           =  -5.2382754370727E-07
(PID.TID 0000.0001) %MON forcing_empmr_sd             =   2.3500850664668E-04
(PID.TID 0000.0001) %MON forcing_empmr_del2           =   2.4244714394007E-06
(PID.TID 0000.0001) %MON forcing_fu_max               =   9.0842458605766E-01
(PID.TID 0000.0001) %MON forcing_fu_min               =  -1.0448753833771E+00
(PID.TID 0000.0001) %MON forcing_fu_mean              =  -9.9767948334947E-04
(PID.TID 0000.0001) %MON forcing_fu_sd                =   1.0616676934501E-01
(PID.TID 0000.0001) %MON forcing_fu_del2              =   1.5715844614137E-04
(PID.TID 0000.0001) %MON forcing_fv_max               =   9.0202346444130E-01
(PID.TID 0000.0001) %MON forcing_fv_min               =  -7.2711673378944E-01
(PID.TID 0000.0001) %MON forcing_fv_mean              =  -8.0941180927483E-03
(PID.TID 0000.0001) %MON forcing_fv_sd                =   1.1095920451042E-01
(PID.TID 0000.0001) %MON forcing_fv_del2              =   1.4368126725930E-04
(PID.TID 0000.0001) %MON trAdv_CFL_u_max              =   1.1113382158112E-02
(PID.TID 0000.0001) %MON trAdv_CFL_v_max              =   1.3150946580694E-02
(PID.TID 0000.0001) %MON trAdv_CFL_w_max              =   2.0834926682087E-02
(PID.TID 0000.0001) %MON advcfl_uvel_max              =   9.0938732480788E-03
(PID.TID 0000.0001) %MON advcfl_vvel_max              =   1.1572856411380E-02
(PID.TID 0000.0001) %MON advcfl_wvel_max              =   1.9383382002438E-02
(PID.TID 0000.0001) %MON advcfl_W_hf_max              =   2.0328259713383E-02
(PID.TID 0000.0001) %MON pe_b_mean                    =   5.1077279494059E-04
(PID.TID 0000.0001) %MON ke_max                       =   4.6736679590628E-01
(PID.TID 0000.0001) %MON ke_mean                      =   3.3455839904519E-04
(PID.TID 0000.0001) %MON ke_vol                       =   1.3349982584498E+18
(PID.TID 0000.0001) %MON vort_r_min                   =  -9.3829239192650E-06
(PID.TID 0000.0001) %MON vort_r_max                   =   1.1763148382709E-05
(PID.TID 0000.0001) %MON vort_a_mean                  =  -1.9727864647440E-05
(PID.TID 0000.0001) %MON vort_a_sd                    =   7.4542952798381E-05
(PID.TID 0000.0001) %MON vort_p_mean                  =  -2.1760527622095E-05
(PID.TID 0000.0001) %MON vort_p_sd                    =   9.7245932979490E-05
(PID.TID 0000.0001) %MON surfExpan_theta_mean         =   4.5942482301973E-08
(PID.TID 0000.0001) %MON surfExpan_salt_mean          =   5.4873794689927E-08
(PID.TID 0000.0001) // =======================================================
(PID.TID 0000.0001) // End MONITOR dynamic field statistics
(PID.TID 0000.0001) // =======================================================
(PID.TID 0000.0001) // =======================================================
(PID.TID 0000.0001) // Begin MONITOR SEAICE statistics
(PID.TID 0000.0001) // =======================================================
(PID.TID 0000.0001) %MON seaice_tsnumber              =                   984
(PID.TID 0000.0001) %MON seaice_time_sec              =   8.8560000000000E+05
(PID.TID 0000.0001) %MON seaice_uice_max              =   4.0000000000000E-01
(PID.TID 0000.0001) %MON seaice_uice_min              =  -4.0000000000000E-01
(PID.TID 0000.0001) %MON seaice_uice_mean             =  -8.3054598624025E-03
(PID.TID 0000.0001) %MON seaice_uice_sd               =   1.9802383574176E-01
(PID.TID 0000.0001) %MON seaice_uice_del2             =   2.2931571122150E-04
(PID.TID 0000.0001) %MON seaice_vice_max              =   4.0000000000000E-01
(PID.TID 0000.0001) %MON seaice_vice_min              =  -4.0000000000000E-01
(PID.TID 0000.0001) %MON seaice_vice_mean             =  -2.1960776359499E-02
(PID.TID 0000.0001) %MON seaice_vice_sd               =   2.1302038025672E-01
(PID.TID 0000.0001) %MON seaice_vice_del2             =   2.3932563818061E-04
(PID.TID 0000.0001) %MON seaice_area_max              =   9.9999999813735E-01
(PID.TID 0000.0001) %MON seaice_area_min              =   0.0000000000000E+00
(PID.TID 0000.0001) %MON seaice_area_mean             =   6.5047658209701E-02
(PID.TID 0000.0001) %MON seaice_area_sd               =   2.2842810469660E-01
(PID.TID 0000.0001) %MON seaice_area_del2             =   3.7983792697791E-04
(PID.TID 0000.0001) %MON seaice_heff_max              =   2.4934893554891E+01
(PID.TID 0000.0001) %MON seaice_heff_min              =   0.0000000000000E+00
(PID.TID 0000.0001) %MON seaice_heff_mean             =   2.1181905731541E-01
(PID.TID 0000.0001) %MON seaice_heff_sd               =   1.0658345757546E+00
(PID.TID 0000.0001) %MON seaice_heff_del2             =   3.8228928409197E-03
(PID.TID 0000.0001) %MON seaice_hsnow_max             =   8.2360125613923E+00
(PID.TID 0000.0001) %MON seaice_hsnow_min             =   0.0000000000000E+00
(PID.TID 0000.0001) %MON seaice_hsnow_mean            =   2.3848503982024E-02
(PID.TID 0000.0001) %MON seaice_hsnow_sd              =   1.5582653238577E-01
(PID.TID 0000.0001) %MON seaice_hsnow_del2            =   1.2360882579639E-03
(PID.TID 0000.0001) // =======================================================
(PID.TID 0000.0001) // End MONITOR SEAICE statistics
(PID.TID 0000.0001) // =======================================================
 Computing Diagnostic #     86  oceQnet      Counter:       4   Parms: SM      U1      
 Computing Diagnostic #     87  oceQsw       Counter:       4   Parms: SM      U1      
 Computing Diagnostic #     84  oceFWflx     Counter:       4   Parms: SM      U1      
 Computing Diagnostic #     85  oceSflux     Counter:       4   Parms: SM      U1      
 Computing Diagnostic #     80  oceTAUX      Counter:       4   Parms: UU      U1      
           Vector  Mate for  oceTAUX      Diagnostic #     81  oceTAUY  exists 
 Computing Diagnostic #     81  oceTAUY      Counter:       4   Parms: VV      U1      
           Vector  Mate for  oceTAUY      Diagnostic #     80  oceTAUX  exists 
 Computing Diagnostic #     26  THETA        Counter:       4   Parms: SMR     MR      
 Computing Diagnostic #     27  SALT         Counter:       4   Parms: SMR     MR      
 Computing Diagnostic #     30  UVEL         Counter:       4   Parms: UUR     MR      
           Vector  Mate for  UVEL         Diagnostic #     31  VVEL     exists 
 Computing Diagnostic #     31  VVEL         Counter:       4   Parms: VVR     MR      
           Vector  Mate for  VVEL         Diagnostic #     30  UVEL     exists 
 Computing Diagnostic #    214  SIarea       Counter:       4   Parms: SM      M1      
 Computing Diagnostic #    217  SIheff       Counter:       4   Parms: SM      M1      
 Computing Diagnostic #    219  SIhsnow      Counter:       4   Parms: SM      M1      
 Computing Diagnostic #     83  sIceLoad     Counter:       4   Parms: SM      U1      
 Computing Diagnostic #    223  SIuice       Counter:       4   Parms: UU      M1      
           Vector  Mate for  SIuice       Diagnostic #    224  SIvice   exists 
 Computing Diagnostic #    224  SIvice       Counter:       4   Parms: VV      M1      
           Vector  Mate for  SIvice       Diagnostic #    223  SIuice   exists 
 Computing Diagnostic #    225  SItaux       Counter:       4   Parms: UU      U1      
           Vector  Mate for  SItaux       Diagnostic #    226  SItauy   exists 
 Computing Diagnostic #    226  SItauy       Counter:       4   Parms: VV      U1      
           Vector  Mate for  SItauy       Diagnostic #    225  SItaux   exists 
 Computing Diagnostic #    285  SIareaN      Counter:       4   Parms: SM      MX      
 Computing Diagnostic #    284  SIheffN      Counter:       4   Parms: SM      MX      
 Computing Diagnostic #    286  SIhsnowN     Counter:       4   Parms: SM      MX      
 Compute Stats, Diag. #    214  SIarea    vol(   0 ): 3.580E+14  Parms: SM      M1      
 Compute Stats, Diag. #    217  SIheff    vol(   0 ): 3.580E+14  Parms: SM      M1      
 Compute Stats, Diag. #    219  SIhsnow   vol(   0 ): 3.580E+14  Parms: SM      M1      
 Compute Stats, Diag. #     83  sIceLoad  vol(   0 ): 3.580E+14  Parms: SM      U1      
 Compute Stats, Diag. #    223  SIuice    vol(   0 ): 3.513E+14  Parms: UU      M1      
 Compute Stats, Diag. #    224  SIvice    vol(   0 ): 3.508E+14  Parms: VV      M1      
 Compute Stats, Diag. #    225  SItaux    vol(   0 ): 3.513E+14  Parms: UU      U1      
 Compute Stats, Diag. #    226  SItauy    vol(   0 ): 3.508E+14  Parms: VV      U1      
 cg2d: Sum(rhs),rhsMax =  -3.37236432854233E+01  2.83662855924302E-01
 Compute Stats, Diag. #    214  SIarea    vol(   0 ): 3.580E+14  Parms: SM      M1      
 Compute Stats, Diag. #    217  SIheff    vol(   0 ): 3.580E+14  Parms: SM      M1      
 Compute Stats, Diag. #    219  SIhsnow   vol(   0 ): 3.580E+14  Parms: SM      M1      
 Compute Stats, Diag. #     83  sIceLoad  vol(   0 ): 3.580E+14  Parms: SM      U1      
 Compute Stats, Diag. #    223  SIuice    vol(   0 ): 3.513E+14  Parms: UU      M1      
 Compute Stats, Diag. #    224  SIvice    vol(   0 ): 3.508E+14  Parms: VV      M1      
 Compute Stats, Diag. #    225  SItaux    vol(   0 ): 3.513E+14  Parms: UU      U1      
 Compute Stats, Diag. #    226  SItauy    vol(   0 ): 3.508E+14  Parms: VV      U1      
 cg2d: Sum(rhs),rhsMax =  -3.37521833638814E+01  2.83625464946092E-01
 Compute Stats, Diag. #    214  SIarea    vol(   0 ): 3.580E+14  Parms: SM      M1      
 Compute Stats, Diag. #    217  SIheff    vol(   0 ): 3.580E+14  Parms: SM      M1      
 Compute Stats, Diag. #    219  SIhsnow   vol(   0 ): 3.580E+14  Parms: SM      M1      
 Compute Stats, Diag. #     83  sIceLoad  vol(   0 ): 3.580E+14  Parms: SM      U1      
 Compute Stats, Diag. #    223  SIuice    vol(   0 ): 3.513E+14  Parms: UU      M1      
 Compute Stats, Diag. #    224  SIvice    vol(   0 ): 3.508E+14  Parms: VV      M1      
 Compute Stats, Diag. #    225  SItaux    vol(   0 ): 3.513E+14  Parms: UU      U1      
 Compute Stats, Diag. #    226  SItauy    vol(   0 ): 3.508E+14  Parms: VV      U1      
 cg2d: Sum(rhs),rhsMax =  -3.37850125351697E+01  2.83591654222516E-01
 Compute Stats, Diag. #    214  SIarea    vol(   0 ): 3.580E+14  Parms: SM      M1      
 Compute Stats, Diag. #    217  SIheff    vol(   0 ): 3.580E+14  Parms: SM      M1      
 Compute Stats, Diag. #    219  SIhsnow   vol(   0 ): 3.580E+14  Parms: SM      M1      
 Compute Stats, Diag. #     83  sIceLoad  vol(   0 ): 3.580E+14  Parms: SM      U1      
 Compute Stats, Diag. #    223  SIuice    vol(   0 ): 3.513E+14  Parms: UU      M1      
 Compute Stats, Diag. #    224  SIvice    vol(   0 ): 3.508E+14  Parms: VV      M1      
 Compute Stats, Diag. #    225  SItaux    vol(   0 ): 3.513E+14  Parms: UU      U1      
 Compute Stats, Diag. #    226  SItauy    vol(   0 ): 3.508E+14  Parms: VV      U1      
 cg2d: Sum(rhs),rhsMax =  -3.38158318004207E+01  2.83561413084991E-01
 Computing Diagnostic #     86  oceQnet      Counter:       4   Parms: SM      U1      
 Computing Diagnostic #     87  oceQsw       Counter:       4   Parms: SM      U1      
 Computing Diagnostic #     84  oceFWflx     Counter:       4   Parms: SM      U1      
 Computing Diagnostic #     85  oceSflux     Counter:       4   Parms: SM      U1      
 Computing Diagnostic #     80  oceTAUX      Counter:       4   Parms: UU      U1      
           Vector  Mate for  oceTAUX      Diagnostic #     81  oceTAUY  exists 
 Computing Diagnostic #     81  oceTAUY      Counter:       4   Parms: VV      U1      
           Vector  Mate for  oceTAUY      Diagnostic #     80  oceTAUX  exists 
 Computing Diagnostic #     26  THETA        Counter:       4   Parms: SMR     MR      
 Computing Diagnostic #     27  SALT         Counter:       4   Parms: SMR     MR      
 Computing Diagnostic #     30  UVEL         Counter:       4   Parms: UUR     MR      
           Vector  Mate for  UVEL         Diagnostic #     31  VVEL     exists 
 Computing Diagnostic #     31  VVEL         Counter:       4   Parms: VVR     MR      
           Vector  Mate for  VVEL         Diagnostic #     30  UVEL     exists 
 Computing Diagnostic #    214  SIarea       Counter:       4   Parms: SM      M1      
 Computing Diagnostic #    217  SIheff       Counter:       4   Parms: SM      M1      
 Computing Diagnostic #    219  SIhsnow      Counter:       4   Parms: SM      M1      
 Computing Diagnostic #     83  sIceLoad     Counter:       4   Parms: SM      U1      
 Computing Diagnostic #    223  SIuice       Counter:       4   Parms: UU      M1      
           Vector  Mate for  SIuice       Diagnostic #    224  SIvice   exists 
 Computing Diagnostic #    224  SIvice       Counter:       4   Parms: VV      M1      
           Vector  Mate for  SIvice       Diagnostic #    223  SIuice   exists 
 Computing Diagnostic #    225  SItaux       Counter:       4   Parms: UU      U1      
           Vector  Mate for  SItaux       Diagnostic #    226  SItauy   exists 
 Computing Diagnostic #    226  SItauy       Counter:       4   Parms: VV      U1      
           Vector  Mate for  SItauy       Diagnostic #    225  SItaux   exists 
 Computing Diagnostic #    285  SIareaN      Counter:       4   Parms: SM      MX      
 Computing Diagnostic #    284  SIheffN      Counter:       4   Parms: SM      MX      
 Computing Diagnostic #    286  SIhsnowN     Counter:       4   Parms: SM      MX      
 Compute Stats, Diag. #    214  SIarea    vol(   0 ): 3.580E+14  Parms: SM      M1      
 Compute Stats, Diag. #    217  SIheff    vol(   0 ): 3.580E+14  Parms: SM      M1      
 Compute Stats, Diag. #    219  SIhsnow   vol(   0 ): 3.580E+14  Parms: SM      M1      
 Compute Stats, Diag. #     83  sIceLoad  vol(   0 ): 3.580E+14  Parms: SM      U1      
 Compute Stats, Diag. #    223  SIuice    vol(   0 ): 3.513E+14  Parms: UU      M1      
 Compute Stats, Diag. #    224  SIvice    vol(   0 ): 3.508E+14  Parms: VV      M1      
 Compute Stats, Diag. #    225  SItaux    vol(   0 ): 3.513E+14  Parms: UU      U1      
 Compute Stats, Diag. #    226  SItauy    vol(   0 ): 3.508E+14  Parms: VV      U1      
 cg2d: Sum(rhs),rhsMax =  -3.38503587669780E+01  2.83534867435450E-01
 Compute Stats, Diag. #    214  SIarea    vol(   0 ): 3.580E+14  Parms: SM      M1      
 Compute Stats, Diag. #    217  SIheff    vol(   0 ): 3.580E+14  Parms: SM      M1      
 Compute Stats, Diag. #    219  SIhsnow   vol(   0 ): 3.580E+14  Parms: SM      M1      
 Compute Stats, Diag. #     83  sIceLoad  vol(   0 ): 3.580E+14  Parms: SM      U1      
 Compute Stats, Diag. #    223  SIuice    vol(   0 ): 3.513E+14  Parms: UU      M1      
 Compute Stats, Diag. #    224  SIvice    vol(   0 ): 3.508E+14  Parms: VV      M1      
 Compute Stats, Diag. #    225  SItaux    vol(   0 ): 3.513E+14  Parms: UU      U1      
 Compute Stats, Diag. #    226  SItauy    vol(   0 ): 3.508E+14  Parms: VV      U1      
 cg2d: Sum(rhs),rhsMax =  -3.38882135655391E+01  2.83512110113578E-01
 Compute Stats, Diag. #    214  SIarea    vol(   0 ): 3.580E+14  Parms: SM      M1      
 Compute Stats, Diag. #    217  SIheff    vol(   0 ): 3.580E+14  Parms: SM      M1      
 Compute Stats, Diag. #    219  SIhsnow   vol(   0 ): 3.580E+14  Parms: SM      M1      
 Compute Stats, Diag. #     83  sIceLoad  vol(   0 ): 3.580E+14  Parms: SM      U1      
 Compute Stats, Diag. #    223  SIuice    vol(   0 ): 3.513E+14  Parms: UU      M1      
 Compute Stats, Diag. #    224  SIvice    vol(   0 ): 3.508E+14  Parms: VV      M1      
 Compute Stats, Diag. #    225  SItaux    vol(   0 ): 3.513E+14  Parms: UU      U1      
 Compute Stats, Diag. #    226  SItauy    vol(   0 ): 3.508E+14  Parms: VV      U1      
 cg2d: Sum(rhs),rhsMax =  -3.39166033485307E+01  2.83493525528512E-01
 Compute Stats, Diag. #    214  SIarea    vol(   0 ): 3.580E+14  Parms: SM      M1      
 Compute Stats, Diag. #    217  SIheff    vol(   0 ): 3.580E+14  Parms: SM      M1      
 Compute Stats, Diag. #    219  SIhsnow   vol(   0 ): 3.580E+14  Parms: SM      M1      
 Compute Stats, Diag. #     83  sIceLoad  vol(   0 ): 3.580E+14  Parms: SM      U1      
 Compute Stats, Diag. #    223  SIuice    vol(   0 ): 3.513E+14  Parms: UU      M1      
 Compute Stats, Diag. #    224  SIvice    vol(   0 ): 3.508E+14  Parms: VV      M1      
 Compute Stats, Diag. #    225  SItaux    vol(   0 ): 3.513E+14  Parms: UU      U1      
 Compute Stats, Diag. #    226  SItauy    vol(   0 ): 3.508E+14  Parms: VV      U1      
 cg2d: Sum(rhs),rhsMax =  -3.39511565986337E+01  2.83478970068173E-01
(PID.TID 0000.0001)      cg2d_init_res =   4.67688359830870E-02
(PID.TID 0000.0001)      cg2d_iters(min,last) =      -1      23
(PID.TID 0000.0001)      cg2d_last_res =   2.66335415403625E-05
(PID.TID 0000.0001) // =======================================================
(PID.TID 0000.0001) // Begin MONITOR dynamic field statistics
(PID.TID 0000.0001) // =======================================================
(PID.TID 0000.0001) %MON time_tsnumber                =                   992
(PID.TID 0000.0001) %MON time_secondsf                =   8.9280000000000E+05
(PID.TID 0000.0001) %MON dynstat_eta_max              =   1.0151655101530E+00
(PID.TID 0000.0001) %MON dynstat_eta_min              =  -1.8066257655269E+00
(PID.TID 0000.0001) %MON dynstat_eta_mean             =   1.0739835160144E-03
(PID.TID 0000.0001) %MON dynstat_eta_sd               =   6.2296316270794E-01
(PID.TID 0000.0001) %MON dynstat_eta_del2             =   5.0416665363094E-05
(PID.TID 0000.0001) %MON dynstat_uvel_max             =   6.8234962096714E-01
(PID.TID 0000.0001) %MON dynstat_uvel_min             =  -8.5910884330740E-01
(PID.TID 0000.0001) %MON dynstat_uvel_mean            =   1.2803725160960E-03
(PID.TID 0000.0001) %MON dynstat_uvel_sd              =   1.7849819248277E-02
(PID.TID 0000.0001) %MON dynstat_uvel_del2            =   7.1040744852621E-06
(PID.TID 0000.0001) %MON dynstat_vvel_max             =   5.7397192611575E-01
(PID.TID 0000.0001) %MON dynstat_vvel_min             =  -9.4825502032572E-01
(PID.TID 0000.0001) %MON dynstat_vvel_mean            =   9.8737427266119E-04
(PID.TID 0000.0001) %MON dynstat_vvel_sd              =   1.9277745902898E-02
(PID.TID 0000.0001) %MON dynstat_vvel_del2            =   7.2167695914227E-06
(PID.TID 0000.0001) %MON dynstat_wvel_max             =   2.8510101235088E-04
(PID.TID 0000.0001) %MON dynstat_wvel_min             =  -7.4218912791104E-04
(PID.TID 0000.0001) %MON dynstat_wvel_mean            =  -5.3999781422492E-09
(PID.TID 0000.0001) %MON dynstat_wvel_sd              =   1.6688123850613E-05
(PID.TID 0000.0001) %MON dynstat_wvel_del2            =   1.3767755867281E-08
(PID.TID 0000.0001) %MON dynstat_theta_max            =   3.1809482156231E+01
(PID.TID 0000.0001) %MON dynstat_theta_min            =  -2.0396913618073E+00
(PID.TID 0000.0001) %MON dynstat_theta_mean           =   3.5901869833021E+00
(PID.TID 0000.0001) %MON dynstat_theta_sd             =   4.4368653361655E+00
(PID.TID 0000.0001) %MON dynstat_theta_del2           =   9.0634484582860E-05
(PID.TID 0000.0001) %MON dynstat_salt_max             =   4.0711543375633E+01
(PID.TID 0000.0001) %MON dynstat_salt_min             =   5.4748105287474E+00
(PID.TID 0000.0001) %MON dynstat_salt_mean            =   3.4725562217409E+01
(PID.TID 0000.0001) %MON dynstat_salt_sd              =   3.7710442639024E-01
(PID.TID 0000.0001) %MON dynstat_salt_del2            =   3.5140679053686E-05
(PID.TID 0000.0001) %MON dynstat_sst_max              =   3.1809482156231E+01
(PID.TID 0000.0001) %MON dynstat_sst_min              =  -1.8113347761041E+00
(PID.TID 0000.0001) %MON dynstat_sst_mean             =   1.8461040713768E+01
(PID.TID 0000.0001) %MON dynstat_sst_sd               =   1.0284062843622E+01
(PID.TID 0000.0001) %MON dynstat_sst_del2             =   7.9839206718156E-04
(PID.TID 0000.0001) %MON dynstat_sss_max              =   3.9098607857225E+01
(PID.TID 0000.0001) %MON dynstat_sss_min              =   5.4748105287474E+00
(PID.TID 0000.0001) %MON dynstat_sss_mean             =   3.4700939791773E+01
(PID.TID 0000.0001) %MON dynstat_sss_sd               =   1.1808203356969E+00
(PID.TID 0000.0001) %MON dynstat_sss_del2             =   1.0695716054656E-03
(PID.TID 0000.0001) %MON forcing_qnet_max             =   6.6575903320312E+02
(PID.TID 0000.0001) %MON forcing_qnet_min             =  -7.6043201503331E+02
(PID.TID 0000.0001) %MON forcing_qnet_mean            =   2.7815566187334E+01
(PID.TID 0000.0001) %MON forcing_qnet_sd              =   1.6985565578995E+02
(PID.TID 0000.0001) %MON forcing_qnet_del2            =   3.1600777002425E-01
(PID.TID 0000.0001) %MON forcing_qsw_max              =   0.0000000000000E+00
(PID.TID 0000.0001) %MON forcing_qsw_min              =  -1.0915664135595E+02
(PID.TID 0000.0001) %MON forcing_qsw_mean             =  -1.6312523709505E+01
(PID.TID 0000.0001) %MON forcing_qsw_sd               =   2.5813418623195E+01
(PID.TID 0000.0001) %MON forcing_qsw_del2             =   2.0878404611129E-02
(PID.TID 0000.0001) %MON forcing_empmr_max            =   8.8661041809246E-04
(PID.TID 0000.0001) %MON forcing_empmr_min            =  -5.6274510920048E-02
(PID.TID 0000.0001) %MON forcing_empmr_mean           =  -1.2496972405425E-06
(PID.TID 0000.0001) %MON forcing_empmr_sd             =   2.5494475512596E-04
(PID.TID 0000.0001) %MON forcing_empmr_del2           =   2.8068057151950E-06
(PID.TID 0000.0001) %MON forcing_fu_max               =   9.2355597019196E-01
(PID.TID 0000.0001) %MON forcing_fu_min               =  -1.1185301542282E+00
(PID.TID 0000.0001) %MON forcing_fu_mean              =  -3.6227482870733E-04
(PID.TID 0000.0001) %MON forcing_fu_sd                =   1.0577292675587E-01
(PID.TID 0000.0001) %MON forcing_fu_del2              =   1.5425865554158E-04
(PID.TID 0000.0001) %MON forcing_fv_max               =   9.3495216965675E-01
(PID.TID 0000.0001) %MON forcing_fv_min               =  -7.2617155313492E-01
(PID.TID 0000.0001) %MON forcing_fv_mean              =  -9.2835249634674E-03
(PID.TID 0000.0001) %MON forcing_fv_sd                =   1.1092828129258E-01
(PID.TID 0000.0001) %MON forcing_fv_del2              =   1.4261601514709E-04
(PID.TID 0000.0001) %MON trAdv_CFL_u_max              =   1.1834051203881E-02
(PID.TID 0000.0001) %MON trAdv_CFL_v_max              =   1.2775998555989E-02
(PID.TID 0000.0001) %MON trAdv_CFL_w_max              =   2.0656663088876E-02
(PID.TID 0000.0001) %MON advcfl_uvel_max              =   9.1155364949493E-03
(PID.TID 0000.0001) %MON advcfl_vvel_max              =   1.1536991038454E-02
(PID.TID 0000.0001) %MON advcfl_wvel_max              =   1.9688644658143E-02
(PID.TID 0000.0001) %MON advcfl_W_hf_max              =   2.0648561920538E-02
(PID.TID 0000.0001) %MON pe_b_mean                    =   5.1048640076278E-04
(PID.TID 0000.0001) %MON ke_max                       =   4.6728383164059E-01
(PID.TID 0000.0001) %MON ke_mean                      =   3.3409517395800E-04
(PID.TID 0000.0001) %MON ke_vol                       =   1.3349982610490E+18
(PID.TID 0000.0001) %MON vort_r_min                   =  -8.7573039870128E-06
(PID.TID 0000.0001) %MON vort_r_max                   =   1.1840219368733E-05
(PID.TID 0000.0001) %MON vort_a_mean                  =  -1.9727864647440E-05
(PID.TID 0000.0001) %MON vort_a_sd                    =   7.4542954844644E-05
(PID.TID 0000.0001) %MON vort_p_mean                  =  -2.1760527537793E-05
(PID.TID 0000.0001) %MON vort_p_sd                    =   9.7245958657916E-05
(PID.TID 0000.0001) %MON surfExpan_theta_mean         =   4.8282418867532E-08
(PID.TID 0000.0001) %MON surfExpan_salt_mean          =   6.2578361313311E-08
(PID.TID 0000.0001) // =======================================================
(PID.TID 0000.0001) // End MONITOR dynamic field statistics
(PID.TID 0000.0001) // =======================================================
(PID.TID 0000.0001) // =======================================================
(PID.TID 0000.0001) // Begin MONITOR SEAICE statistics
(PID.TID 0000.0001) // =======================================================
(PID.TID 0000.0001) %MON seaice_tsnumber              =                   992
(PID.TID 0000.0001) %MON seaice_time_sec              =   8.9280000000000E+05
(PID.TID 0000.0001) %MON seaice_uice_max              =   4.0000000000000E-01
(PID.TID 0000.0001) %MON seaice_uice_min              =  -4.0000000000000E-01
(PID.TID 0000.0001) %MON seaice_uice_mean             =  -8.3054598624025E-03
(PID.TID 0000.0001) %MON seaice_uice_sd               =   1.9802383574176E-01
(PID.TID 0000.0001) %MON seaice_uice_del2             =   2.2931571122150E-04
(PID.TID 0000.0001) %MON seaice_vice_max              =   4.0000000000000E-01
(PID.TID 0000.0001) %MON seaice_vice_min              =  -4.0000000000000E-01
(PID.TID 0000.0001) %MON seaice_vice_mean             =  -2.1960776359499E-02
(PID.TID 0000.0001) %MON seaice_vice_sd               =   2.1302038025672E-01
(PID.TID 0000.0001) %MON seaice_vice_del2             =   2.3932563818061E-04
(PID.TID 0000.0001) %MON seaice_area_max              =   9.9999999813735E-01
(PID.TID 0000.0001) %MON seaice_area_min              =   0.0000000000000E+00
(PID.TID 0000.0001) %MON seaice_area_mean             =   6.5019496180420E-02
(PID.TID 0000.0001) %MON seaice_area_sd               =   2.2837718761065E-01
(PID.TID 0000.0001) %MON seaice_area_del2             =   3.7929338362078E-04
(PID.TID 0000.0001) %MON seaice_heff_max              =   2.4930369181442E+01
(PID.TID 0000.0001) %MON seaice_heff_min              =   0.0000000000000E+00
(PID.TID 0000.0001) %MON seaice_heff_mean             =   2.1179341032810E-01
(PID.TID 0000.0001) %MON seaice_heff_sd               =   1.0658128554972E+00
(PID.TID 0000.0001) %MON seaice_heff_del2             =   3.8222441330938E-03
(PID.TID 0000.0001) %MON seaice_hsnow_max             =   8.2345253047242E+00
(PID.TID 0000.0001) %MON seaice_hsnow_min             =   0.0000000000000E+00
(PID.TID 0000.0001) %MON seaice_hsnow_mean            =   2.3848134071029E-02
(PID.TID 0000.0001) %MON seaice_hsnow_sd              =   1.5582072681443E-01
(PID.TID 0000.0001) %MON seaice_hsnow_del2            =   1.2359671120292E-03
(PID.TID 0000.0001) // =======================================================
(PID.TID 0000.0001) // End MONITOR SEAICE statistics
(PID.TID 0000.0001) // =======================================================
 Computing Diagnostic #     86  oceQnet      Counter:       4   Parms: SM      U1      
 Computing Diagnostic #     87  oceQsw       Counter:       4   Parms: SM      U1      
 Computing Diagnostic #     84  oceFWflx     Counter:       4   Parms: SM      U1      
 Computing Diagnostic #     85  oceSflux     Counter:       4   Parms: SM      U1      
 Computing Diagnostic #     80  oceTAUX      Counter:       4   Parms: UU      U1      
           Vector  Mate for  oceTAUX      Diagnostic #     81  oceTAUY  exists 
 Computing Diagnostic #     81  oceTAUY      Counter:       4   Parms: VV      U1      
           Vector  Mate for  oceTAUY      Diagnostic #     80  oceTAUX  exists 
 Computing Diagnostic #     26  THETA        Counter:       4   Parms: SMR     MR      
 Computing Diagnostic #     27  SALT         Counter:       4   Parms: SMR     MR      
 Computing Diagnostic #     30  UVEL         Counter:       4   Parms: UUR     MR      
           Vector  Mate for  UVEL         Diagnostic #     31  VVEL     exists 
 Computing Diagnostic #     31  VVEL         Counter:       4   Parms: VVR     MR      
           Vector  Mate for  VVEL         Diagnostic #     30  UVEL     exists 
 Computing Diagnostic #    214  SIarea       Counter:       4   Parms: SM      M1      
 Computing Diagnostic #    217  SIheff       Counter:       4   Parms: SM      M1      
 Computing Diagnostic #    219  SIhsnow      Counter:       4   Parms: SM      M1      
 Computing Diagnostic #     83  sIceLoad     Counter:       4   Parms: SM      U1      
 Computing Diagnostic #    223  SIuice       Counter:       4   Parms: UU      M1      
           Vector  Mate for  SIuice       Diagnostic #    224  SIvice   exists 
 Computing Diagnostic #    224  SIvice       Counter:       4   Parms: VV      M1      
           Vector  Mate for  SIvice       Diagnostic #    223  SIuice   exists 
 Computing Diagnostic #    225  SItaux       Counter:       4   Parms: UU      U1      
           Vector  Mate for  SItaux       Diagnostic #    226  SItauy   exists 
 Computing Diagnostic #    226  SItauy       Counter:       4   Parms: VV      U1      
           Vector  Mate for  SItauy       Diagnostic #    225  SItaux   exists 
 Computing Diagnostic #    285  SIareaN      Counter:       4   Parms: SM      MX      
 Computing Diagnostic #    284  SIheffN      Counter:       4   Parms: SM      MX      
 Computing Diagnostic #    286  SIhsnowN     Counter:       4   Parms: SM      MX      
 Compute Stats, Diag. #    214  SIarea    vol(   0 ): 3.580E+14  Parms: SM      M1      
 Compute Stats, Diag. #    217  SIheff    vol(   0 ): 3.580E+14  Parms: SM      M1      
 Compute Stats, Diag. #    219  SIhsnow   vol(   0 ): 3.580E+14  Parms: SM      M1      
 Compute Stats, Diag. #     83  sIceLoad  vol(   0 ): 3.580E+14  Parms: SM      U1      
 Compute Stats, Diag. #    223  SIuice    vol(   0 ): 3.513E+14  Parms: UU      M1      
 Compute Stats, Diag. #    224  SIvice    vol(   0 ): 3.508E+14  Parms: VV      M1      
 Compute Stats, Diag. #    225  SItaux    vol(   0 ): 3.513E+14  Parms: UU      U1      
 Compute Stats, Diag. #    226  SItauy    vol(   0 ): 3.508E+14  Parms: VV      U1      
 cg2d: Sum(rhs),rhsMax =  -3.39884941714519E+01  2.83468706153340E-01
 Compute Stats, Diag. #    214  SIarea    vol(   0 ): 3.580E+14  Parms: SM      M1      
 Compute Stats, Diag. #    217  SIheff    vol(   0 ): 3.580E+14  Parms: SM      M1      
 Compute Stats, Diag. #    219  SIhsnow   vol(   0 ): 3.580E+14  Parms: SM      M1      
 Compute Stats, Diag. #     83  sIceLoad  vol(   0 ): 3.580E+14  Parms: SM      U1      
 Compute Stats, Diag. #    223  SIuice    vol(   0 ): 3.513E+14  Parms: UU      M1      
 Compute Stats, Diag. #    224  SIvice    vol(   0 ): 3.508E+14  Parms: VV      M1      
 Compute Stats, Diag. #    225  SItaux    vol(   0 ): 3.513E+14  Parms: UU      U1      
 Compute Stats, Diag. #    226  SItauy    vol(   0 ): 3.508E+14  Parms: VV      U1      
 cg2d: Sum(rhs),rhsMax =  -3.40231260538582E+01  2.83462259405527E-01
 Compute Stats, Diag. #    214  SIarea    vol(   0 ): 3.580E+14  Parms: SM      M1      
 Compute Stats, Diag. #    217  SIheff    vol(   0 ): 3.580E+14  Parms: SM      M1      
 Compute Stats, Diag. #    219  SIhsnow   vol(   0 ): 3.580E+14  Parms: SM      M1      
 Compute Stats, Diag. #     83  sIceLoad  vol(   0 ): 3.580E+14  Parms: SM      U1      
 Compute Stats, Diag. #    223  SIuice    vol(   0 ): 3.513E+14  Parms: UU      M1      
 Compute Stats, Diag. #    224  SIvice    vol(   0 ): 3.508E+14  Parms: VV      M1      
 Compute Stats, Diag. #    225  SItaux    vol(   0 ): 3.513E+14  Parms: UU      U1      
 Compute Stats, Diag. #    226  SItauy    vol(   0 ): 3.508E+14  Parms: VV      U1      
 cg2d: Sum(rhs),rhsMax =  -3.40588926923988E+01  2.83458936011096E-01
 Compute Stats, Diag. #    214  SIarea    vol(   0 ): 3.580E+14  Parms: SM      M1      
 Compute Stats, Diag. #    217  SIheff    vol(   0 ): 3.580E+14  Parms: SM      M1      
 Compute Stats, Diag. #    219  SIhsnow   vol(   0 ): 3.580E+14  Parms: SM      M1      
 Compute Stats, Diag. #     83  sIceLoad  vol(   0 ): 3.580E+14  Parms: SM      U1      
 Compute Stats, Diag. #    223  SIuice    vol(   0 ): 3.513E+14  Parms: UU      M1      
 Compute Stats, Diag. #    224  SIvice    vol(   0 ): 3.508E+14  Parms: VV      M1      
 Compute Stats, Diag. #    225  SItaux    vol(   0 ): 3.513E+14  Parms: UU      U1      
 Compute Stats, Diag. #    226  SItauy    vol(   0 ): 3.508E+14  Parms: VV      U1      
 cg2d: Sum(rhs),rhsMax =  -3.40989088449055E+01  2.83458644457484E-01
 Computing Diagnostic #     86  oceQnet      Counter:       4   Parms: SM      U1      
 Computing Diagnostic #     87  oceQsw       Counter:       4   Parms: SM      U1      
 Computing Diagnostic #     84  oceFWflx     Counter:       4   Parms: SM      U1      
 Computing Diagnostic #     85  oceSflux     Counter:       4   Parms: SM      U1      
 Computing Diagnostic #     80  oceTAUX      Counter:       4   Parms: UU      U1      
           Vector  Mate for  oceTAUX      Diagnostic #     81  oceTAUY  exists 
 Computing Diagnostic #     81  oceTAUY      Counter:       4   Parms: VV      U1      
           Vector  Mate for  oceTAUY      Diagnostic #     80  oceTAUX  exists 
 Computing Diagnostic #     26  THETA        Counter:       4   Parms: SMR     MR      
 Computing Diagnostic #     27  SALT         Counter:       4   Parms: SMR     MR      
 Computing Diagnostic #     30  UVEL         Counter:       4   Parms: UUR     MR      
           Vector  Mate for  UVEL         Diagnostic #     31  VVEL     exists 
 Computing Diagnostic #     31  VVEL         Counter:       4   Parms: VVR     MR      
           Vector  Mate for  VVEL         Diagnostic #     30  UVEL     exists 
 Computing Diagnostic #    214  SIarea       Counter:       4   Parms: SM      M1      
 Computing Diagnostic #    217  SIheff       Counter:       4   Parms: SM      M1      
 Computing Diagnostic #    219  SIhsnow      Counter:       4   Parms: SM      M1      
 Computing Diagnostic #     83  sIceLoad     Counter:       4   Parms: SM      U1      
 Computing Diagnostic #    223  SIuice       Counter:       4   Parms: UU      M1      
           Vector  Mate for  SIuice       Diagnostic #    224  SIvice   exists 
 Computing Diagnostic #    224  SIvice       Counter:       4   Parms: VV      M1      
           Vector  Mate for  SIvice       Diagnostic #    223  SIuice   exists 
 Computing Diagnostic #    225  SItaux       Counter:       4   Parms: UU      U1      
           Vector  Mate for  SItaux       Diagnostic #    226  SItauy   exists 
 Computing Diagnostic #    226  SItauy       Counter:       4   Parms: VV      U1      
           Vector  Mate for  SItauy       Diagnostic #    225  SItaux   exists 
 Computing Diagnostic #    285  SIareaN      Counter:       4   Parms: SM      MX      
 Computing Diagnostic #    284  SIheffN      Counter:       4   Parms: SM      MX      
 Computing Diagnostic #    286  SIhsnowN     Counter:       4   Parms: SM      MX      
 Compute Stats, Diag. #    214  SIarea    vol(   0 ): 3.580E+14  Parms: SM      M1      
 Compute Stats, Diag. #    217  SIheff    vol(   0 ): 3.580E+14  Parms: SM      M1      
 Compute Stats, Diag. #    219  SIhsnow   vol(   0 ): 3.580E+14  Parms: SM      M1      
 Compute Stats, Diag. #     83  sIceLoad  vol(   0 ): 3.580E+14  Parms: SM      U1      
 Compute Stats, Diag. #    223  SIuice    vol(   0 ): 3.513E+14  Parms: UU      M1      
 Compute Stats, Diag. #    224  SIvice    vol(   0 ): 3.508E+14  Parms: VV      M1      
 Compute Stats, Diag. #    225  SItaux    vol(   0 ): 3.513E+14  Parms: UU      U1      
 Compute Stats, Diag. #    226  SItauy    vol(   0 ): 3.508E+14  Parms: VV      U1      
 cg2d: Sum(rhs),rhsMax =  -3.41384312672113E+01  2.83461195833719E-01
 Compute Stats, Diag. #    214  SIarea    vol(   0 ): 3.580E+14  Parms: SM      M1      
 Compute Stats, Diag. #    217  SIheff    vol(   0 ): 3.580E+14  Parms: SM      M1      
 Compute Stats, Diag. #    219  SIhsnow   vol(   0 ): 3.580E+14  Parms: SM      M1      
 Compute Stats, Diag. #     83  sIceLoad  vol(   0 ): 3.580E+14  Parms: SM      U1      
 Compute Stats, Diag. #    223  SIuice    vol(   0 ): 3.513E+14  Parms: UU      M1      
 Compute Stats, Diag. #    224  SIvice    vol(   0 ): 3.508E+14  Parms: VV      M1      
 Compute Stats, Diag. #    225  SItaux    vol(   0 ): 3.513E+14  Parms: UU      U1      
 Compute Stats, Diag. #    226  SItauy    vol(   0 ): 3.508E+14  Parms: VV      U1      
 cg2d: Sum(rhs),rhsMax =  -3.41827622689095E+01  2.83465866233562E-01
 Compute Stats, Diag. #    214  SIarea    vol(   0 ): 3.580E+14  Parms: SM      M1      
 Compute Stats, Diag. #    217  SIheff    vol(   0 ): 3.580E+14  Parms: SM      M1      
 Compute Stats, Diag. #    219  SIhsnow   vol(   0 ): 3.580E+14  Parms: SM      M1      
 Compute Stats, Diag. #     83  sIceLoad  vol(   0 ): 3.580E+14  Parms: SM      U1      
 Compute Stats, Diag. #    223  SIuice    vol(   0 ): 3.513E+14  Parms: UU      M1      
 Compute Stats, Diag. #    224  SIvice    vol(   0 ): 3.508E+14  Parms: VV      M1      
 Compute Stats, Diag. #    225  SItaux    vol(   0 ): 3.513E+14  Parms: UU      U1      
 Compute Stats, Diag. #    226  SItauy    vol(   0 ): 3.508E+14  Parms: VV      U1      
 cg2d: Sum(rhs),rhsMax =  -3.42221921248484E+01  2.83472787623792E-01
 Compute Stats, Diag. #    214  SIarea    vol(   0 ): 3.580E+14  Parms: SM      M1      
 Compute Stats, Diag. #    217  SIheff    vol(   0 ): 3.580E+14  Parms: SM      M1      
 Compute Stats, Diag. #    219  SIhsnow   vol(   0 ): 3.580E+14  Parms: SM      M1      
 Compute Stats, Diag. #     83  sIceLoad  vol(   0 ): 3.580E+14  Parms: SM      U1      
 Compute Stats, Diag. #    223  SIuice    vol(   0 ): 3.513E+14  Parms: UU      M1      
 Compute Stats, Diag. #    224  SIvice    vol(   0 ): 3.508E+14  Parms: VV      M1      
 Compute Stats, Diag. #    225  SItaux    vol(   0 ): 3.513E+14  Parms: UU      U1      
 Compute Stats, Diag. #    226  SItauy    vol(   0 ): 3.508E+14  Parms: VV      U1      
 cg2d: Sum(rhs),rhsMax =  -3.42638864990185E+01  2.83481451787194E-01
(PID.TID 0000.0001)      cg2d_init_res =   4.77693220665681E-02
(PID.TID 0000.0001)      cg2d_iters(min,last) =      -1      24
(PID.TID 0000.0001)      cg2d_last_res =   2.31070168720605E-05
(PID.TID 0000.0001) // =======================================================
(PID.TID 0000.0001) // Begin MONITOR dynamic field statistics
(PID.TID 0000.0001) // =======================================================
(PID.TID 0000.0001) %MON time_tsnumber                =                  1000
(PID.TID 0000.0001) %MON time_secondsf                =   9.0000000000000E+05
(PID.TID 0000.0001) %MON dynstat_eta_max              =   1.0139734590134E+00
(PID.TID 0000.0001) %MON dynstat_eta_min              =  -1.8047587096424E+00
(PID.TID 0000.0001) %MON dynstat_eta_mean             =   1.0838761615566E-03
(PID.TID 0000.0001) %MON dynstat_eta_sd               =   6.2279781960525E-01
(PID.TID 0000.0001) %MON dynstat_eta_del2             =   5.0413181058110E-05
(PID.TID 0000.0001) %MON dynstat_uvel_max             =   6.8066034019104E-01
(PID.TID 0000.0001) %MON dynstat_uvel_min             =  -8.5834638741692E-01
(PID.TID 0000.0001) %MON dynstat_uvel_mean            =   1.2934527710520E-03
(PID.TID 0000.0001) %MON dynstat_uvel_sd              =   1.7839866418592E-02
(PID.TID 0000.0001) %MON dynstat_uvel_del2            =   7.0935895395615E-06
(PID.TID 0000.0001) %MON dynstat_vvel_max             =   5.7104033337738E-01
(PID.TID 0000.0001) %MON dynstat_vvel_min             =  -9.4877693631906E-01
(PID.TID 0000.0001) %MON dynstat_vvel_mean            =   9.8268313367536E-04
(PID.TID 0000.0001) %MON dynstat_vvel_sd              =   1.9274139506373E-02
(PID.TID 0000.0001) %MON dynstat_vvel_del2            =   7.2031192265235E-06
(PID.TID 0000.0001) %MON dynstat_wvel_max             =   2.8439202089056E-04
(PID.TID 0000.0001) %MON dynstat_wvel_min             =  -7.4127047919164E-04
(PID.TID 0000.0001) %MON dynstat_wvel_mean            =  -7.2488789586189E-09
(PID.TID 0000.0001) %MON dynstat_wvel_sd              =   1.6570527324818E-05
(PID.TID 0000.0001) %MON dynstat_wvel_del2            =   1.3753239673896E-08
(PID.TID 0000.0001) %MON dynstat_theta_max            =   3.1812567195175E+01
(PID.TID 0000.0001) %MON dynstat_theta_min            =  -2.0396849132244E+00
(PID.TID 0000.0001) %MON dynstat_theta_mean           =   3.5901690324272E+00
(PID.TID 0000.0001) %MON dynstat_theta_sd             =   4.4368179937474E+00
(PID.TID 0000.0001) %MON dynstat_theta_del2           =   9.0594050521059E-05
(PID.TID 0000.0001) %MON dynstat_salt_max             =   4.0711543434727E+01
(PID.TID 0000.0001) %MON dynstat_salt_min             =   5.4586269644160E+00
(PID.TID 0000.0001) %MON dynstat_salt_mean            =   3.4725562118958E+01
(PID.TID 0000.0001) %MON dynstat_salt_sd              =   3.7710559615760E-01
(PID.TID 0000.0001) %MON dynstat_salt_del2            =   3.5156030098738E-05
(PID.TID 0000.0001) %MON dynstat_sst_max              =   3.1812567195175E+01
(PID.TID 0000.0001) %MON dynstat_sst_min              =  -1.8119037281678E+00
(PID.TID 0000.0001) %MON dynstat_sst_mean             =   1.8455785522962E+01
(PID.TID 0000.0001) %MON dynstat_sst_sd               =   1.0284204105986E+01
(PID.TID 0000.0001) %MON dynstat_sst_del2             =   7.9803170569561E-04
(PID.TID 0000.0001) %MON dynstat_sss_max              =   3.9098540317962E+01
(PID.TID 0000.0001) %MON dynstat_sss_min              =   5.4586269644160E+00
(PID.TID 0000.0001) %MON dynstat_sss_mean             =   3.4700962577829E+01
(PID.TID 0000.0001) %MON dynstat_sss_sd               =   1.1810610767474E+00
(PID.TID 0000.0001) %MON dynstat_sss_del2             =   1.0696003844900E-03
(PID.TID 0000.0001) %MON forcing_qnet_max             =   6.3586050812249E+02
(PID.TID 0000.0001) %MON forcing_qnet_min             =  -7.9392651367188E+02
(PID.TID 0000.0001) %MON forcing_qnet_mean            =   4.4070648835194E+01
(PID.TID 0000.0001) %MON forcing_qnet_sd              =   1.7164149463258E+02
(PID.TID 0000.0001) %MON forcing_qnet_del2            =   3.1939090043406E-01
(PID.TID 0000.0001) %MON forcing_qsw_max              =   0.0000000000000E+00
(PID.TID 0000.0001) %MON forcing_qsw_min              =  -1.0591138141341E+02
(PID.TID 0000.0001) %MON forcing_qsw_mean             =  -1.4162916106116E+01
(PID.TID 0000.0001) %MON forcing_qsw_sd               =   2.6053141456290E+01
(PID.TID 0000.0001) %MON forcing_qsw_del2             =   1.8789450591643E-02
(PID.TID 0000.0001) %MON forcing_empmr_max            =   8.9558924082667E-04
(PID.TID 0000.0001) %MON forcing_empmr_min            =  -6.3593305647373E-02
(PID.TID 0000.0001) %MON forcing_empmr_mean           =  -1.5079723093439E-06
(PID.TID 0000.0001) %MON forcing_empmr_sd             =   2.7463624235185E-04
(PID.TID 0000.0001) %MON forcing_empmr_del2           =   2.9574641856221E-06
(PID.TID 0000.0001) %MON forcing_fu_max               =   9.1967332363129E-01
(PID.TID 0000.0001) %MON forcing_fu_min               =  -1.1134057044983E+00
(PID.TID 0000.0001) %MON forcing_fu_mean              =   2.5292140184343E-04
(PID.TID 0000.0001) %MON forcing_fu_sd                =   1.0583460829945E-01
(PID.TID 0000.0001) %MON forcing_fu_del2              =   1.5317794811738E-04
(PID.TID 0000.0001) %MON forcing_fv_max               =   9.3565216660500E-01
(PID.TID 0000.0001) %MON forcing_fv_min               =  -7.0827835798264E-01
(PID.TID 0000.0001) %MON forcing_fv_mean              =  -1.0363648001059E-02
(PID.TID 0000.0001) %MON forcing_fv_sd                =   1.1090947565472E-01
(PID.TID 0000.0001) %MON forcing_fv_del2              =   1.4085202810531E-04
(PID.TID 0000.0001) %MON trAdv_CFL_u_max              =   1.1521528328057E-02
(PID.TID 0000.0001) %MON trAdv_CFL_v_max              =   1.2502100240469E-02
(PID.TID 0000.0001) %MON trAdv_CFL_w_max              =   1.9868956812027E-02
(PID.TID 0000.0001) %MON advcfl_uvel_max              =   9.1481658750650E-03
(PID.TID 0000.0001) %MON advcfl_vvel_max              =   1.1478065231090E-02
(PID.TID 0000.0001) %MON advcfl_wvel_max              =   1.9990350675064E-02
(PID.TID 0000.0001) %MON advcfl_W_hf_max              =   2.0965139326492E-02
(PID.TID 0000.0001) %MON pe_b_mean                    =   5.1021548388015E-04
(PID.TID 0000.0001) %MON ke_max                       =   4.6729472593204E-01
(PID.TID 0000.0001) %MON ke_mean                      =   3.3386865618452E-04
(PID.TID 0000.0001) %MON ke_vol                       =   1.3349982645098E+18
(PID.TID 0000.0001) %MON vort_r_min                   =  -9.3414503330292E-06
(PID.TID 0000.0001) %MON vort_r_max                   =   1.1906602423790E-05
(PID.TID 0000.0001) %MON vort_a_mean                  =  -1.9727864647440E-05
(PID.TID 0000.0001) %MON vort_a_sd                    =   7.4542956295737E-05
(PID.TID 0000.0001) %MON vort_p_mean                  =  -2.1760527435749E-05
(PID.TID 0000.0001) %MON vort_p_sd                    =   9.7245994530567E-05
(PID.TID 0000.0001) %MON surfExpan_theta_mean         =   3.9237625232678E-08
(PID.TID 0000.0001) %MON surfExpan_salt_mean          =   7.1638510804369E-08
(PID.TID 0000.0001) // =======================================================
(PID.TID 0000.0001) // End MONITOR dynamic field statistics
(PID.TID 0000.0001) // =======================================================
(PID.TID 0000.0001) // =======================================================
(PID.TID 0000.0001) // Begin MONITOR SEAICE statistics
(PID.TID 0000.0001) // =======================================================
(PID.TID 0000.0001) %MON seaice_tsnumber              =                  1000
(PID.TID 0000.0001) %MON seaice_time_sec              =   9.0000000000000E+05
(PID.TID 0000.0001) %MON seaice_uice_max              =   4.0000000000000E-01
(PID.TID 0000.0001) %MON seaice_uice_min              =  -4.0000000000000E-01
(PID.TID 0000.0001) %MON seaice_uice_mean             =  -8.3054598624025E-03
(PID.TID 0000.0001) %MON seaice_uice_sd               =   1.9802383574176E-01
(PID.TID 0000.0001) %MON seaice_uice_del2             =   2.2931571122150E-04
(PID.TID 0000.0001) %MON seaice_vice_max              =   4.0000000000000E-01
(PID.TID 0000.0001) %MON seaice_vice_min              =  -4.0000000000000E-01
(PID.TID 0000.0001) %MON seaice_vice_mean             =  -2.1960776359499E-02
(PID.TID 0000.0001) %MON seaice_vice_sd               =   2.1302038025672E-01
(PID.TID 0000.0001) %MON seaice_vice_del2             =   2.3932563818061E-04
(PID.TID 0000.0001) %MON seaice_area_max              =   9.9999999813735E-01
(PID.TID 0000.0001) %MON seaice_area_min              =   0.0000000000000E+00
(PID.TID 0000.0001) %MON seaice_area_mean             =   6.4995344504666E-02
(PID.TID 0000.0001) %MON seaice_area_sd               =   2.2833288354266E-01
(PID.TID 0000.0001) %MON seaice_area_del2             =   3.7877707629464E-04
(PID.TID 0000.0001) %MON seaice_heff_max              =   2.4926245292882E+01
(PID.TID 0000.0001) %MON seaice_heff_min              =   0.0000000000000E+00
(PID.TID 0000.0001) %MON seaice_heff_mean             =   2.1176969449386E-01
(PID.TID 0000.0001) %MON seaice_heff_sd               =   1.0657915844667E+00
(PID.TID 0000.0001) %MON seaice_heff_del2             =   3.8216104976888E-03
(PID.TID 0000.0001) %MON seaice_hsnow_max             =   8.2331689587445E+00
(PID.TID 0000.0001) %MON seaice_hsnow_min             =   0.0000000000000E+00
(PID.TID 0000.0001) %MON seaice_hsnow_mean            =   2.3850522425381E-02
(PID.TID 0000.0001) %MON seaice_hsnow_sd              =   1.5581630090688E-01
(PID.TID 0000.0001) %MON seaice_hsnow_del2            =   1.2358470282411E-03
(PID.TID 0000.0001) // =======================================================
(PID.TID 0000.0001) // End MONITOR SEAICE statistics
(PID.TID 0000.0001) // =======================================================
 Computing Diagnostic #     86  oceQnet      Counter:       4   Parms: SM      U1      
 Computing Diagnostic #     87  oceQsw       Counter:       4   Parms: SM      U1      
 Computing Diagnostic #     84  oceFWflx     Counter:       4   Parms: SM      U1      
 Computing Diagnostic #     85  oceSflux     Counter:       4   Parms: SM      U1      
 Computing Diagnostic #     80  oceTAUX      Counter:       4   Parms: UU      U1      
           Vector  Mate for  oceTAUX      Diagnostic #     81  oceTAUY  exists 
 Computing Diagnostic #     81  oceTAUY      Counter:       4   Parms: VV      U1      
           Vector  Mate for  oceTAUY      Diagnostic #     80  oceTAUX  exists 
 Computing Diagnostic #     26  THETA        Counter:       4   Parms: SMR     MR      
 Computing Diagnostic #     27  SALT         Counter:       4   Parms: SMR     MR      
 Computing Diagnostic #     30  UVEL         Counter:       4   Parms: UUR     MR      
           Vector  Mate for  UVEL         Diagnostic #     31  VVEL     exists 
 Computing Diagnostic #     31  VVEL         Counter:       4   Parms: VVR     MR      
           Vector  Mate for  VVEL         Diagnostic #     30  UVEL     exists 
 Computing Diagnostic #    214  SIarea       Counter:       4   Parms: SM      M1      
 Computing Diagnostic #    217  SIheff       Counter:       4   Parms: SM      M1      
 Computing Diagnostic #    219  SIhsnow      Counter:       4   Parms: SM      M1      
 Computing Diagnostic #     83  sIceLoad     Counter:       4   Parms: SM      U1      
 Computing Diagnostic #    223  SIuice       Counter:       4   Parms: UU      M1      
           Vector  Mate for  SIuice       Diagnostic #    224  SIvice   exists 
 Computing Diagnostic #    224  SIvice       Counter:       4   Parms: VV      M1      
           Vector  Mate for  SIvice       Diagnostic #    223  SIuice   exists 
 Computing Diagnostic #    225  SItaux       Counter:       4   Parms: UU      U1      
           Vector  Mate for  SItaux       Diagnostic #    226  SItauy   exists 
 Computing Diagnostic #    226  SItauy       Counter:       4   Parms: VV      U1      
           Vector  Mate for  SItauy       Diagnostic #    225  SItaux   exists 
 Computing Diagnostic #    285  SIareaN      Counter:       4   Parms: SM      MX      
 Computing Diagnostic #    284  SIheffN      Counter:       4   Parms: SM      MX      
 Computing Diagnostic #    286  SIhsnowN     Counter:       4   Parms: SM      MX      
 Compute Stats, Diag. #    214  SIarea    vol(   0 ): 3.580E+14  Parms: SM      M1      
 Compute Stats, Diag. #    217  SIheff    vol(   0 ): 3.580E+14  Parms: SM      M1      
 Compute Stats, Diag. #    219  SIhsnow   vol(   0 ): 3.580E+14  Parms: SM      M1      
 Compute Stats, Diag. #     83  sIceLoad  vol(   0 ): 3.580E+14  Parms: SM      U1      
 Compute Stats, Diag. #    223  SIuice    vol(   0 ): 3.513E+14  Parms: UU      M1      
 Compute Stats, Diag. #    224  SIvice    vol(   0 ): 3.508E+14  Parms: VV      M1      
 Compute Stats, Diag. #    225  SItaux    vol(   0 ): 3.513E+14  Parms: UU      U1      
 Compute Stats, Diag. #    226  SItauy    vol(   0 ): 3.508E+14  Parms: VV      U1      
 cg2d: Sum(rhs),rhsMax =  -3.43163655888131E+01  2.83490891813342E-01
 Compute Stats, Diag. #    214  SIarea    vol(   0 ): 3.580E+14  Parms: SM      M1      
 Compute Stats, Diag. #    217  SIheff    vol(   0 ): 3.580E+14  Parms: SM      M1      
 Compute Stats, Diag. #    219  SIhsnow   vol(   0 ): 3.580E+14  Parms: SM      M1      
 Compute Stats, Diag. #     83  sIceLoad  vol(   0 ): 3.580E+14  Parms: SM      U1      
 Compute Stats, Diag. #    223  SIuice    vol(   0 ): 3.513E+14  Parms: UU      M1      
 Compute Stats, Diag. #    224  SIvice    vol(   0 ): 3.508E+14  Parms: VV      M1      
 Compute Stats, Diag. #    225  SItaux    vol(   0 ): 3.513E+14  Parms: UU      U1      
 Compute Stats, Diag. #    226  SItauy    vol(   0 ): 3.508E+14  Parms: VV      U1      
 cg2d: Sum(rhs),rhsMax =  -3.43682966526461E+01  2.83501038508190E-01
 Compute Stats, Diag. #    214  SIarea    vol(   0 ): 3.580E+14  Parms: SM      M1      
 Compute Stats, Diag. #    217  SIheff    vol(   0 ): 3.580E+14  Parms: SM      M1      
 Compute Stats, Diag. #    219  SIhsnow   vol(   0 ): 3.580E+14  Parms: SM      M1      
 Compute Stats, Diag. #     83  sIceLoad  vol(   0 ): 3.580E+14  Parms: SM      U1      
 Compute Stats, Diag. #    223  SIuice    vol(   0 ): 3.513E+14  Parms: UU      M1      
 Compute Stats, Diag. #    224  SIvice    vol(   0 ): 3.508E+14  Parms: VV      M1      
 Compute Stats, Diag. #    225  SItaux    vol(   0 ): 3.513E+14  Parms: UU      U1      
 Compute Stats, Diag. #    226  SItauy    vol(   0 ): 3.508E+14  Parms: VV      U1      
 cg2d: Sum(rhs),rhsMax =  -3.44176016022515E+01  2.83510401555997E-01
 Compute Stats, Diag. #    214  SIarea    vol(   0 ): 3.580E+14  Parms: SM      M1      
 Compute Stats, Diag. #    217  SIheff    vol(   0 ): 3.580E+14  Parms: SM      M1      
 Compute Stats, Diag. #    219  SIhsnow   vol(   0 ): 3.580E+14  Parms: SM      M1      
 Compute Stats, Diag. #     83  sIceLoad  vol(   0 ): 3.580E+14  Parms: SM      U1      
 Compute Stats, Diag. #    223  SIuice    vol(   0 ): 3.513E+14  Parms: UU      M1      
 Compute Stats, Diag. #    224  SIvice    vol(   0 ): 3.508E+14  Parms: VV      M1      
 Compute Stats, Diag. #    225  SItaux    vol(   0 ): 3.513E+14  Parms: UU      U1      
 Compute Stats, Diag. #    226  SItauy    vol(   0 ): 3.508E+14  Parms: VV      U1      
 cg2d: Sum(rhs),rhsMax =  -3.44680571629630E+01  2.83519143125619E-01
 Computing Diagnostic #     86  oceQnet      Counter:       4   Parms: SM      U1      
 Computing Diagnostic #     87  oceQsw       Counter:       4   Parms: SM      U1      
 Computing Diagnostic #     84  oceFWflx     Counter:       4   Parms: SM      U1      
 Computing Diagnostic #     85  oceSflux     Counter:       4   Parms: SM      U1      
 Computing Diagnostic #     80  oceTAUX      Counter:       4   Parms: UU      U1      
           Vector  Mate for  oceTAUX      Diagnostic #     81  oceTAUY  exists 
 Computing Diagnostic #     81  oceTAUY      Counter:       4   Parms: VV      U1      
           Vector  Mate for  oceTAUY      Diagnostic #     80  oceTAUX  exists 
 Computing Diagnostic #     26  THETA        Counter:       4   Parms: SMR     MR      
 Computing Diagnostic #     27  SALT         Counter:       4   Parms: SMR     MR      
 Computing Diagnostic #     30  UVEL         Counter:       4   Parms: UUR     MR      
           Vector  Mate for  UVEL         Diagnostic #     31  VVEL     exists 
 Computing Diagnostic #     31  VVEL         Counter:       4   Parms: VVR     MR      
           Vector  Mate for  VVEL         Diagnostic #     30  UVEL     exists 
 Computing Diagnostic #    214  SIarea       Counter:       4   Parms: SM      M1      
 Computing Diagnostic #    217  SIheff       Counter:       4   Parms: SM      M1      
 Computing Diagnostic #    219  SIhsnow      Counter:       4   Parms: SM      M1      
 Computing Diagnostic #     83  sIceLoad     Counter:       4   Parms: SM      U1      
 Computing Diagnostic #    223  SIuice       Counter:       4   Parms: UU      M1      
           Vector  Mate for  SIuice       Diagnostic #    224  SIvice   exists 
 Computing Diagnostic #    224  SIvice       Counter:       4   Parms: VV      M1      
           Vector  Mate for  SIvice       Diagnostic #    223  SIuice   exists 
 Computing Diagnostic #    225  SItaux       Counter:       4   Parms: UU      U1      
           Vector  Mate for  SItaux       Diagnostic #    226  SItauy   exists 
 Computing Diagnostic #    226  SItauy       Counter:       4   Parms: VV      U1      
           Vector  Mate for  SItauy       Diagnostic #    225  SItaux   exists 
 Computing Diagnostic #    285  SIareaN      Counter:       4   Parms: SM      MX      
 Computing Diagnostic #    284  SIheffN      Counter:       4   Parms: SM      MX      
 Computing Diagnostic #    286  SIhsnowN     Counter:       4   Parms: SM      MX      
 Compute Stats, Diag. #    214  SIarea    vol(   0 ): 3.580E+14  Parms: SM      M1      
 Compute Stats, Diag. #    217  SIheff    vol(   0 ): 3.580E+14  Parms: SM      M1      
 Compute Stats, Diag. #    219  SIhsnow   vol(   0 ): 3.580E+14  Parms: SM      M1      
 Compute Stats, Diag. #     83  sIceLoad  vol(   0 ): 3.580E+14  Parms: SM      U1      
 Compute Stats, Diag. #    223  SIuice    vol(   0 ): 3.513E+14  Parms: UU      M1      
 Compute Stats, Diag. #    224  SIvice    vol(   0 ): 3.508E+14  Parms: VV      M1      
 Compute Stats, Diag. #    225  SItaux    vol(   0 ): 3.513E+14  Parms: UU      U1      
 Compute Stats, Diag. #    226  SItauy    vol(   0 ): 3.508E+14  Parms: VV      U1      
 cg2d: Sum(rhs),rhsMax =  -3.45190606982572E+01  2.83526723957298E-01
 Compute Stats, Diag. #    214  SIarea    vol(   0 ): 3.580E+14  Parms: SM      M1      
 Compute Stats, Diag. #    217  SIheff    vol(   0 ): 3.580E+14  Parms: SM      M1      
 Compute Stats, Diag. #    219  SIhsnow   vol(   0 ): 3.580E+14  Parms: SM      M1      
 Compute Stats, Diag. #     83  sIceLoad  vol(   0 ): 3.580E+14  Parms: SM      U1      
 Compute Stats, Diag. #    223  SIuice    vol(   0 ): 3.513E+14  Parms: UU      M1      
 Compute Stats, Diag. #    224  SIvice    vol(   0 ): 3.508E+14  Parms: VV      M1      
 Compute Stats, Diag. #    225  SItaux    vol(   0 ): 3.513E+14  Parms: UU      U1      
 Compute Stats, Diag. #    226  SItauy    vol(   0 ): 3.508E+14  Parms: VV      U1      
 cg2d: Sum(rhs),rhsMax =  -3.45669396898407E+01  2.83533462003622E-01
 Compute Stats, Diag. #    214  SIarea    vol(   0 ): 3.580E+14  Parms: SM      M1      
 Compute Stats, Diag. #    217  SIheff    vol(   0 ): 3.580E+14  Parms: SM      M1      
 Compute Stats, Diag. #    219  SIhsnow   vol(   0 ): 3.580E+14  Parms: SM      M1      
 Compute Stats, Diag. #     83  sIceLoad  vol(   0 ): 3.580E+14  Parms: SM      U1      
 Compute Stats, Diag. #    223  SIuice    vol(   0 ): 3.513E+14  Parms: UU      M1      
 Compute Stats, Diag. #    224  SIvice    vol(   0 ): 3.508E+14  Parms: VV      M1      
 Compute Stats, Diag. #    225  SItaux    vol(   0 ): 3.513E+14  Parms: UU      U1      
 Compute Stats, Diag. #    226  SItauy    vol(   0 ): 3.508E+14  Parms: VV      U1      
 cg2d: Sum(rhs),rhsMax =  -3.46122397187289E+01  2.83539059916169E-01
 Compute Stats, Diag. #    214  SIarea    vol(   0 ): 3.580E+14  Parms: SM      M1      
 Compute Stats, Diag. #    217  SIheff    vol(   0 ): 3.580E+14  Parms: SM      M1      
 Compute Stats, Diag. #    219  SIhsnow   vol(   0 ): 3.580E+14  Parms: SM      M1      
 Compute Stats, Diag. #     83  sIceLoad  vol(   0 ): 3.580E+14  Parms: SM      U1      
 Compute Stats, Diag. #    223  SIuice    vol(   0 ): 3.513E+14  Parms: UU      M1      
 Compute Stats, Diag. #    224  SIvice    vol(   0 ): 3.508E+14  Parms: VV      M1      
 Compute Stats, Diag. #    225  SItaux    vol(   0 ): 3.513E+14  Parms: UU      U1      
 Compute Stats, Diag. #    226  SItauy    vol(   0 ): 3.508E+14  Parms: VV      U1      
 cg2d: Sum(rhs),rhsMax =  -3.46658016638540E+01  2.83543415454123E-01
(PID.TID 0000.0001)      cg2d_init_res =   4.51989195006166E-02
(PID.TID 0000.0001)      cg2d_iters(min,last) =      -1      24
(PID.TID 0000.0001)      cg2d_last_res =   2.28455393870896E-05
(PID.TID 0000.0001) // =======================================================
(PID.TID 0000.0001) // Begin MONITOR dynamic field statistics
(PID.TID 0000.0001) // =======================================================
(PID.TID 0000.0001) %MON time_tsnumber                =                  1008
(PID.TID 0000.0001) %MON time_secondsf                =   9.0720000000000E+05
(PID.TID 0000.0001) %MON dynstat_eta_max              =   1.0125694032910E+00
(PID.TID 0000.0001) %MON dynstat_eta_min              =  -1.8031967853957E+00
(PID.TID 0000.0001) %MON dynstat_eta_mean             =   1.0965900218522E-03
(PID.TID 0000.0001) %MON dynstat_eta_sd               =   6.2264490010128E-01
(PID.TID 0000.0001) %MON dynstat_eta_del2             =   5.0502284305330E-05
(PID.TID 0000.0001) %MON dynstat_uvel_max             =   6.8172649705660E-01
(PID.TID 0000.0001) %MON dynstat_uvel_min             =  -8.5787887551419E-01
(PID.TID 0000.0001) %MON dynstat_uvel_mean            =   1.3046417389092E-03
(PID.TID 0000.0001) %MON dynstat_uvel_sd              =   1.7845733206876E-02
(PID.TID 0000.0001) %MON dynstat_uvel_del2            =   7.0877106858959E-06
(PID.TID 0000.0001) %MON dynstat_vvel_max             =   5.6896467766188E-01
(PID.TID 0000.0001) %MON dynstat_vvel_min             =  -9.4959131386910E-01
(PID.TID 0000.0001) %MON dynstat_vvel_mean            =   9.7895742465731E-04
(PID.TID 0000.0001) %MON dynstat_vvel_sd              =   1.9270315487566E-02
(PID.TID 0000.0001) %MON dynstat_vvel_del2            =   7.1934463078795E-06
(PID.TID 0000.0001) %MON dynstat_wvel_max             =   2.8377808540408E-04
(PID.TID 0000.0001) %MON dynstat_wvel_min             =  -7.4631632374002E-04
(PID.TID 0000.0001) %MON dynstat_wvel_mean            =  -8.0618304664397E-09
(PID.TID 0000.0001) %MON dynstat_wvel_sd              =   1.6435889836922E-05
(PID.TID 0000.0001) %MON dynstat_wvel_del2            =   1.3748391208686E-08
(PID.TID 0000.0001) %MON dynstat_theta_max            =   3.1795488129910E+01
(PID.TID 0000.0001) %MON dynstat_theta_min            =  -2.0396780250669E+00
(PID.TID 0000.0001) %MON dynstat_theta_mean           =   3.5901477528125E+00
(PID.TID 0000.0001) %MON dynstat_theta_sd             =   4.4367526381301E+00
(PID.TID 0000.0001) %MON dynstat_theta_del2           =   9.0550816694240E-05
(PID.TID 0000.0001) %MON dynstat_salt_max             =   4.0711543506373E+01
(PID.TID 0000.0001) %MON dynstat_salt_min             =   5.4240160064001E+00
(PID.TID 0000.0001) %MON dynstat_salt_mean            =   3.4725561991227E+01
(PID.TID 0000.0001) %MON dynstat_salt_sd              =   3.7710655611756E-01
(PID.TID 0000.0001) %MON dynstat_salt_del2            =   3.5150891043013E-05
(PID.TID 0000.0001) %MON dynstat_sst_max              =   3.1795488129910E+01
(PID.TID 0000.0001) %MON dynstat_sst_min              =  -1.8090991153320E+00
(PID.TID 0000.0001) %MON dynstat_sst_mean             =   1.8450545496679E+01
(PID.TID 0000.0001) %MON dynstat_sst_sd               =   1.0284220574808E+01
(PID.TID 0000.0001) %MON dynstat_sst_del2             =   7.9698752639076E-04
(PID.TID 0000.0001) %MON dynstat_sss_max              =   3.9098450675120E+01
(PID.TID 0000.0001) %MON dynstat_sss_min              =   5.4240160064001E+00
(PID.TID 0000.0001) %MON dynstat_sss_mean             =   3.4701002324523E+01
(PID.TID 0000.0001) %MON dynstat_sss_sd               =   1.1812968401668E+00
(PID.TID 0000.0001) %MON dynstat_sss_del2             =   1.0683709435771E-03
(PID.TID 0000.0001) %MON forcing_qnet_max             =   5.7692712402344E+02
(PID.TID 0000.0001) %MON forcing_qnet_min             =  -7.3469512939453E+02
(PID.TID 0000.0001) %MON forcing_qnet_mean            =   4.3285738798587E+01
(PID.TID 0000.0001) %MON forcing_qnet_sd              =   1.6777684824818E+02
(PID.TID 0000.0001) %MON forcing_qnet_del2            =   2.9921099132289E-01
(PID.TID 0000.0001) %MON forcing_qsw_max              =   0.0000000000000E+00
(PID.TID 0000.0001) %MON forcing_qsw_min              =  -1.1038393787945E+02
(PID.TID 0000.0001) %MON forcing_qsw_mean             =  -1.3400086024406E+01
(PID.TID 0000.0001) %MON forcing_qsw_sd               =   2.4716207038067E+01
(PID.TID 0000.0001) %MON forcing_qsw_del2             =   1.8598221437176E-02
(PID.TID 0000.0001) %MON forcing_empmr_max            =   6.8942602956668E-04
(PID.TID 0000.0001) %MON forcing_empmr_min            =  -6.5333761274815E-02
(PID.TID 0000.0001) %MON forcing_empmr_mean           =  -1.9371901289997E-06
(PID.TID 0000.0001) %MON forcing_empmr_sd             =   2.7176603761207E-04
(PID.TID 0000.0001) %MON forcing_empmr_del2           =   2.8171073179868E-06
(PID.TID 0000.0001) %MON forcing_fu_max               =   9.8797193169594E-01
(PID.TID 0000.0001) %MON forcing_fu_min               =  -1.1739305853844E+00
(PID.TID 0000.0001) %MON forcing_fu_mean              =   4.9806401572778E-04
(PID.TID 0000.0001) %MON forcing_fu_sd                =   1.0560578863050E-01
(PID.TID 0000.0001) %MON forcing_fu_del2              =   1.5170805782122E-04
(PID.TID 0000.0001) %MON forcing_fv_max               =   9.0924781560898E-01
(PID.TID 0000.0001) %MON forcing_fv_min               =  -7.0113360881805E-01
(PID.TID 0000.0001) %MON forcing_fv_mean              =  -1.0818977891597E-02
(PID.TID 0000.0001) %MON forcing_fv_sd                =   1.1049673983478E-01
(PID.TID 0000.0001) %MON forcing_fv_del2              =   1.3989012431517E-04
(PID.TID 0000.0001) %MON trAdv_CFL_u_max              =   1.1228692180415E-02
(PID.TID 0000.0001) %MON trAdv_CFL_v_max              =   1.2294968727083E-02
(PID.TID 0000.0001) %MON trAdv_CFL_w_max              =   1.9045899984426E-02
(PID.TID 0000.0001) %MON advcfl_uvel_max              =   9.1831415512011E-03
(PID.TID 0000.0001) %MON advcfl_vvel_max              =   1.1436343989511E-02
(PID.TID 0000.0001) %MON advcfl_wvel_max              =   2.0303206771538E-02
(PID.TID 0000.0001) %MON advcfl_W_hf_max              =   2.1293344890511E-02
(PID.TID 0000.0001) %MON pe_b_mean                    =   5.0996499728100E-04
(PID.TID 0000.0001) %MON ke_max                       =   4.6753217859637E-01
(PID.TID 0000.0001) %MON ke_mean                      =   3.3390901020177E-04
(PID.TID 0000.0001) %MON ke_vol                       =   1.3349982689271E+18
(PID.TID 0000.0001) %MON vort_r_min                   =  -1.0685158505118E-05
(PID.TID 0000.0001) %MON vort_r_max                   =   1.2887972753569E-05
(PID.TID 0000.0001) %MON vort_a_mean                  =  -1.9727864647440E-05
(PID.TID 0000.0001) %MON vort_a_sd                    =   7.4542957229291E-05
(PID.TID 0000.0001) %MON vort_p_mean                  =  -2.1760527299280E-05
(PID.TID 0000.0001) %MON vort_p_sd                    =   9.7246050249510E-05
(PID.TID 0000.0001) %MON surfExpan_theta_mean         =   2.2811773862462E-08
(PID.TID 0000.0001) %MON surfExpan_salt_mean          =   7.5881676228568E-08
(PID.TID 0000.0001) // =======================================================
(PID.TID 0000.0001) // End MONITOR dynamic field statistics
(PID.TID 0000.0001) // =======================================================
(PID.TID 0000.0001) // =======================================================
(PID.TID 0000.0001) // Begin MONITOR SEAICE statistics
(PID.TID 0000.0001) // =======================================================
(PID.TID 0000.0001) %MON seaice_tsnumber              =                  1008
(PID.TID 0000.0001) %MON seaice_time_sec              =   9.0720000000000E+05
(PID.TID 0000.0001) %MON seaice_uice_max              =   4.0000000000000E-01
(PID.TID 0000.0001) %MON seaice_uice_min              =  -4.0000000000000E-01
(PID.TID 0000.0001) %MON seaice_uice_mean             =  -8.3054598624025E-03
(PID.TID 0000.0001) %MON seaice_uice_sd               =   1.9802383574176E-01
(PID.TID 0000.0001) %MON seaice_uice_del2             =   2.2931571122150E-04
(PID.TID 0000.0001) %MON seaice_vice_max              =   4.0000000000000E-01
(PID.TID 0000.0001) %MON seaice_vice_min              =  -4.0000000000000E-01
(PID.TID 0000.0001) %MON seaice_vice_mean             =  -2.1960776359499E-02
(PID.TID 0000.0001) %MON seaice_vice_sd               =   2.1302038025672E-01
(PID.TID 0000.0001) %MON seaice_vice_del2             =   2.3932563818061E-04
(PID.TID 0000.0001) %MON seaice_area_max              =   9.9999999813735E-01
(PID.TID 0000.0001) %MON seaice_area_min              =   0.0000000000000E+00
(PID.TID 0000.0001) %MON seaice_area_mean             =   6.4974807422955E-02
(PID.TID 0000.0001) %MON seaice_area_sd               =   2.2829496423248E-01
(PID.TID 0000.0001) %MON seaice_area_del2             =   3.7832193604915E-04
(PID.TID 0000.0001) %MON seaice_heff_max              =   2.4922554851742E+01
(PID.TID 0000.0001) %MON seaice_heff_min              =   0.0000000000000E+00
(PID.TID 0000.0001) %MON seaice_heff_mean             =   2.1174793751978E-01
(PID.TID 0000.0001) %MON seaice_heff_sd               =   1.0657707941522E+00
(PID.TID 0000.0001) %MON seaice_heff_del2             =   3.8209850939542E-03
(PID.TID 0000.0001) %MON seaice_hsnow_max             =   8.2319545279897E+00
(PID.TID 0000.0001) %MON seaice_hsnow_min             =   0.0000000000000E+00
(PID.TID 0000.0001) %MON seaice_hsnow_mean            =   2.3853962068188E-02
(PID.TID 0000.0001) %MON seaice_hsnow_sd              =   1.5581218767962E-01
(PID.TID 0000.0001) %MON seaice_hsnow_del2            =   1.2357366102851E-03
(PID.TID 0000.0001) // =======================================================
(PID.TID 0000.0001) // End MONITOR SEAICE statistics
(PID.TID 0000.0001) // =======================================================
 Computing Diagnostic #     86  oceQnet      Counter:       4   Parms: SM      U1      
 Computing Diagnostic #     87  oceQsw       Counter:       4   Parms: SM      U1      
 Computing Diagnostic #     84  oceFWflx     Counter:       4   Parms: SM      U1      
 Computing Diagnostic #     85  oceSflux     Counter:       4   Parms: SM      U1      
 Computing Diagnostic #     80  oceTAUX      Counter:       4   Parms: UU      U1      
           Vector  Mate for  oceTAUX      Diagnostic #     81  oceTAUY  exists 
 Computing Diagnostic #     81  oceTAUY      Counter:       4   Parms: VV      U1      
           Vector  Mate for  oceTAUY      Diagnostic #     80  oceTAUX  exists 
 Computing Diagnostic #     26  THETA        Counter:       4   Parms: SMR     MR      
 Computing Diagnostic #     27  SALT         Counter:       4   Parms: SMR     MR      
 Computing Diagnostic #     30  UVEL         Counter:       4   Parms: UUR     MR      
           Vector  Mate for  UVEL         Diagnostic #     31  VVEL     exists 
 Computing Diagnostic #     31  VVEL         Counter:       4   Parms: VVR     MR      
           Vector  Mate for  VVEL         Diagnostic #     30  UVEL     exists 
 Computing Diagnostic #    214  SIarea       Counter:       4   Parms: SM      M1      
 Computing Diagnostic #    217  SIheff       Counter:       4   Parms: SM      M1      
 Computing Diagnostic #    219  SIhsnow      Counter:       4   Parms: SM      M1      
 Computing Diagnostic #     83  sIceLoad     Counter:       4   Parms: SM      U1      
 Computing Diagnostic #    223  SIuice       Counter:       4   Parms: UU      M1      
           Vector  Mate for  SIuice       Diagnostic #    224  SIvice   exists 
 Computing Diagnostic #    224  SIvice       Counter:       4   Parms: VV      M1      
           Vector  Mate for  SIvice       Diagnostic #    223  SIuice   exists 
 Computing Diagnostic #    225  SItaux       Counter:       4   Parms: UU      U1      
           Vector  Mate for  SItaux       Diagnostic #    226  SItauy   exists 
 Computing Diagnostic #    226  SItauy       Counter:       4   Parms: VV      U1      
           Vector  Mate for  SItauy       Diagnostic #    225  SItaux   exists 
 Computing Diagnostic #    285  SIareaN      Counter:       4   Parms: SM      MX      
 Computing Diagnostic #    284  SIheffN      Counter:       4   Parms: SM      MX      
 Computing Diagnostic #    286  SIhsnowN     Counter:       4   Parms: SM      MX      
 Compute Stats, Diag. #    214  SIarea    vol(   0 ): 3.580E+14  Parms: SM      M1      
 Compute Stats, Diag. #    217  SIheff    vol(   0 ): 3.580E+14  Parms: SM      M1      
 Compute Stats, Diag. #    219  SIhsnow   vol(   0 ): 3.580E+14  Parms: SM      M1      
 Compute Stats, Diag. #     83  sIceLoad  vol(   0 ): 3.580E+14  Parms: SM      U1      
 Compute Stats, Diag. #    223  SIuice    vol(   0 ): 3.513E+14  Parms: UU      M1      
 Compute Stats, Diag. #    224  SIvice    vol(   0 ): 3.508E+14  Parms: VV      M1      
 Compute Stats, Diag. #    225  SItaux    vol(   0 ): 3.513E+14  Parms: UU      U1      
 Compute Stats, Diag. #    226  SItauy    vol(   0 ): 3.508E+14  Parms: VV      U1      
 cg2d: Sum(rhs),rhsMax =  -3.47205069676954E+01  2.83546133011798E-01
 Compute Stats, Diag. #    214  SIarea    vol(   0 ): 3.580E+14  Parms: SM      M1      
 Compute Stats, Diag. #    217  SIheff    vol(   0 ): 3.580E+14  Parms: SM      M1      
 Compute Stats, Diag. #    219  SIhsnow   vol(   0 ): 3.580E+14  Parms: SM      M1      
 Compute Stats, Diag. #     83  sIceLoad  vol(   0 ): 3.580E+14  Parms: SM      U1      
 Compute Stats, Diag. #    223  SIuice    vol(   0 ): 3.513E+14  Parms: UU      M1      
 Compute Stats, Diag. #    224  SIvice    vol(   0 ): 3.508E+14  Parms: VV      M1      
 Compute Stats, Diag. #    225  SItaux    vol(   0 ): 3.513E+14  Parms: UU      U1      
 Compute Stats, Diag. #    226  SItauy    vol(   0 ): 3.508E+14  Parms: VV      U1      
 cg2d: Sum(rhs),rhsMax =  -3.47779012350494E+01  2.83547740405499E-01
 Compute Stats, Diag. #    214  SIarea    vol(   0 ): 3.580E+14  Parms: SM      M1      
 Compute Stats, Diag. #    217  SIheff    vol(   0 ): 3.580E+14  Parms: SM      M1      
 Compute Stats, Diag. #    219  SIhsnow   vol(   0 ): 3.580E+14  Parms: SM      M1      
 Compute Stats, Diag. #     83  sIceLoad  vol(   0 ): 3.580E+14  Parms: SM      U1      
 Compute Stats, Diag. #    223  SIuice    vol(   0 ): 3.513E+14  Parms: UU      M1      
 Compute Stats, Diag. #    224  SIvice    vol(   0 ): 3.508E+14  Parms: VV      M1      
 Compute Stats, Diag. #    225  SItaux    vol(   0 ): 3.513E+14  Parms: UU      U1      
 Compute Stats, Diag. #    226  SItauy    vol(   0 ): 3.508E+14  Parms: VV      U1      
 cg2d: Sum(rhs),rhsMax =  -3.48394929718491E+01  2.83547024810516E-01
 Compute Stats, Diag. #    214  SIarea    vol(   0 ): 3.580E+14  Parms: SM      M1      
 Compute Stats, Diag. #    217  SIheff    vol(   0 ): 3.580E+14  Parms: SM      M1      
 Compute Stats, Diag. #    219  SIhsnow   vol(   0 ): 3.580E+14  Parms: SM      M1      
 Compute Stats, Diag. #     83  sIceLoad  vol(   0 ): 3.580E+14  Parms: SM      U1      
 Compute Stats, Diag. #    223  SIuice    vol(   0 ): 3.513E+14  Parms: UU      M1      
 Compute Stats, Diag. #    224  SIvice    vol(   0 ): 3.508E+14  Parms: VV      M1      
 Compute Stats, Diag. #    225  SItaux    vol(   0 ): 3.513E+14  Parms: UU      U1      
 Compute Stats, Diag. #    226  SItauy    vol(   0 ): 3.508E+14  Parms: VV      U1      
 cg2d: Sum(rhs),rhsMax =  -3.49025226433961E+01  2.83544657767328E-01
 Computing Diagnostic #     86  oceQnet      Counter:       4   Parms: SM      U1      
 Computing Diagnostic #     87  oceQsw       Counter:       4   Parms: SM      U1      
 Computing Diagnostic #     84  oceFWflx     Counter:       4   Parms: SM      U1      
 Computing Diagnostic #     85  oceSflux     Counter:       4   Parms: SM      U1      
 Computing Diagnostic #     80  oceTAUX      Counter:       4   Parms: UU      U1      
           Vector  Mate for  oceTAUX      Diagnostic #     81  oceTAUY  exists 
 Computing Diagnostic #     81  oceTAUY      Counter:       4   Parms: VV      U1      
           Vector  Mate for  oceTAUY      Diagnostic #     80  oceTAUX  exists 
 Computing Diagnostic #     26  THETA        Counter:       4   Parms: SMR     MR      
 Computing Diagnostic #     27  SALT         Counter:       4   Parms: SMR     MR      
 Computing Diagnostic #     30  UVEL         Counter:       4   Parms: UUR     MR      
           Vector  Mate for  UVEL         Diagnostic #     31  VVEL     exists 
 Computing Diagnostic #     31  VVEL         Counter:       4   Parms: VVR     MR      
           Vector  Mate for  VVEL         Diagnostic #     30  UVEL     exists 
 Computing Diagnostic #    214  SIarea       Counter:       4   Parms: SM      M1      
 Computing Diagnostic #    217  SIheff       Counter:       4   Parms: SM      M1      
 Computing Diagnostic #    219  SIhsnow      Counter:       4   Parms: SM      M1      
 Computing Diagnostic #     83  sIceLoad     Counter:       4   Parms: SM      U1      
 Computing Diagnostic #    223  SIuice       Counter:       4   Parms: UU      M1      
           Vector  Mate for  SIuice       Diagnostic #    224  SIvice   exists 
 Computing Diagnostic #    224  SIvice       Counter:       4   Parms: VV      M1      
           Vector  Mate for  SIvice       Diagnostic #    223  SIuice   exists 
 Computing Diagnostic #    225  SItaux       Counter:       4   Parms: UU      U1      
           Vector  Mate for  SItaux       Diagnostic #    226  SItauy   exists 
 Computing Diagnostic #    226  SItauy       Counter:       4   Parms: VV      U1      
           Vector  Mate for  SItauy       Diagnostic #    225  SItaux   exists 
 Computing Diagnostic #    285  SIareaN      Counter:       4   Parms: SM      MX      
 Computing Diagnostic #    284  SIheffN      Counter:       4   Parms: SM      MX      
 Computing Diagnostic #    286  SIhsnowN     Counter:       4   Parms: SM      MX      
 Compute Stats, Diag. #    214  SIarea    vol(   0 ): 3.580E+14  Parms: SM      M1      
 Compute Stats, Diag. #    217  SIheff    vol(   0 ): 3.580E+14  Parms: SM      M1      
 Compute Stats, Diag. #    219  SIhsnow   vol(   0 ): 3.580E+14  Parms: SM      M1      
 Compute Stats, Diag. #     83  sIceLoad  vol(   0 ): 3.580E+14  Parms: SM      U1      
 Compute Stats, Diag. #    223  SIuice    vol(   0 ): 3.513E+14  Parms: UU      M1      
 Compute Stats, Diag. #    224  SIvice    vol(   0 ): 3.508E+14  Parms: VV      M1      
 Compute Stats, Diag. #    225  SItaux    vol(   0 ): 3.513E+14  Parms: UU      U1      
 Compute Stats, Diag. #    226  SItauy    vol(   0 ): 3.508E+14  Parms: VV      U1      
 cg2d: Sum(rhs),rhsMax =  -3.49721486766938E+01  2.83539855816889E-01
 Compute Stats, Diag. #    214  SIarea    vol(   0 ): 3.580E+14  Parms: SM      M1      
 Compute Stats, Diag. #    217  SIheff    vol(   0 ): 3.580E+14  Parms: SM      M1      
 Compute Stats, Diag. #    219  SIhsnow   vol(   0 ): 3.580E+14  Parms: SM      M1      
 Compute Stats, Diag. #     83  sIceLoad  vol(   0 ): 3.580E+14  Parms: SM      U1      
 Compute Stats, Diag. #    223  SIuice    vol(   0 ): 3.513E+14  Parms: UU      M1      
 Compute Stats, Diag. #    224  SIvice    vol(   0 ): 3.508E+14  Parms: VV      M1      
 Compute Stats, Diag. #    225  SItaux    vol(   0 ): 3.513E+14  Parms: UU      U1      
 Compute Stats, Diag. #    226  SItauy    vol(   0 ): 3.508E+14  Parms: VV      U1      
 cg2d: Sum(rhs),rhsMax =  -3.50469633486885E+01  2.83532922930044E-01
 Compute Stats, Diag. #    214  SIarea    vol(   0 ): 3.580E+14  Parms: SM      M1      
 Compute Stats, Diag. #    217  SIheff    vol(   0 ): 3.580E+14  Parms: SM      M1      
 Compute Stats, Diag. #    219  SIhsnow   vol(   0 ): 3.580E+14  Parms: SM      M1      
 Compute Stats, Diag. #     83  sIceLoad  vol(   0 ): 3.580E+14  Parms: SM      U1      
 Compute Stats, Diag. #    223  SIuice    vol(   0 ): 3.513E+14  Parms: UU      M1      
 Compute Stats, Diag. #    224  SIvice    vol(   0 ): 3.508E+14  Parms: VV      M1      
 Compute Stats, Diag. #    225  SItaux    vol(   0 ): 3.513E+14  Parms: UU      U1      
 Compute Stats, Diag. #    226  SItauy    vol(   0 ): 3.508E+14  Parms: VV      U1      
 cg2d: Sum(rhs),rhsMax =  -3.51209274339332E+01  2.83524025583633E-01
 Compute Stats, Diag. #    214  SIarea    vol(   0 ): 3.580E+14  Parms: SM      M1      
 Compute Stats, Diag. #    217  SIheff    vol(   0 ): 3.580E+14  Parms: SM      M1      
 Compute Stats, Diag. #    219  SIhsnow   vol(   0 ): 3.580E+14  Parms: SM      M1      
 Compute Stats, Diag. #     83  sIceLoad  vol(   0 ): 3.580E+14  Parms: SM      U1      
 Compute Stats, Diag. #    223  SIuice    vol(   0 ): 3.513E+14  Parms: UU      M1      
 Compute Stats, Diag. #    224  SIvice    vol(   0 ): 3.508E+14  Parms: VV      M1      
 Compute Stats, Diag. #    225  SItaux    vol(   0 ): 3.513E+14  Parms: UU      U1      
 Compute Stats, Diag. #    226  SItauy    vol(   0 ): 3.508E+14  Parms: VV      U1      
 cg2d: Sum(rhs),rhsMax =  -3.52101704512433E+01  2.83514819711848E-01
(PID.TID 0000.0001)      cg2d_init_res =   4.41413254005517E-02
(PID.TID 0000.0001)      cg2d_iters(min,last) =      -1      24
(PID.TID 0000.0001)      cg2d_last_res =   2.29431712354341E-05
(PID.TID 0000.0001) // =======================================================
(PID.TID 0000.0001) // Begin MONITOR dynamic field statistics
(PID.TID 0000.0001) // =======================================================
(PID.TID 0000.0001) %MON time_tsnumber                =                  1016
(PID.TID 0000.0001) %MON time_secondsf                =   9.1440000000000E+05
(PID.TID 0000.0001) %MON dynstat_eta_max              =   1.0114514645066E+00
(PID.TID 0000.0001) %MON dynstat_eta_min              =  -1.8019733179756E+00
(PID.TID 0000.0001) %MON dynstat_eta_mean             =   1.1138101451959E-03
(PID.TID 0000.0001) %MON dynstat_eta_sd               =   6.2250338900989E-01
(PID.TID 0000.0001) %MON dynstat_eta_del2             =   5.0693577571573E-05
(PID.TID 0000.0001) %MON dynstat_uvel_max             =   6.8383084350164E-01
(PID.TID 0000.0001) %MON dynstat_uvel_min             =  -8.5915509202446E-01
(PID.TID 0000.0001) %MON dynstat_uvel_mean            =   1.3136418102275E-03
(PID.TID 0000.0001) %MON dynstat_uvel_sd              =   1.7860654719084E-02
(PID.TID 0000.0001) %MON dynstat_uvel_del2            =   7.0800124301016E-06
(PID.TID 0000.0001) %MON dynstat_vvel_max             =   5.6960549784479E-01
(PID.TID 0000.0001) %MON dynstat_vvel_min             =  -9.5197068271655E-01
(PID.TID 0000.0001) %MON dynstat_vvel_mean            =   9.7895866089009E-04
(PID.TID 0000.0001) %MON dynstat_vvel_sd              =   1.9268892770417E-02
(PID.TID 0000.0001) %MON dynstat_vvel_del2            =   7.1881432150681E-06
(PID.TID 0000.0001) %MON dynstat_wvel_max             =   2.8276399106885E-04
(PID.TID 0000.0001) %MON dynstat_wvel_min             =  -7.5243949954318E-04
(PID.TID 0000.0001) %MON dynstat_wvel_mean            =  -7.6654284550448E-09
(PID.TID 0000.0001) %MON dynstat_wvel_sd              =   1.6289164821250E-05
(PID.TID 0000.0001) %MON dynstat_wvel_del2            =   1.3725349268892E-08
(PID.TID 0000.0001) %MON dynstat_theta_max            =   3.1773434481250E+01
(PID.TID 0000.0001) %MON dynstat_theta_min            =  -2.0396710925938E+00
(PID.TID 0000.0001) %MON dynstat_theta_mean           =   3.5901307406219E+00
(PID.TID 0000.0001) %MON dynstat_theta_sd             =   4.4367008428218E+00
(PID.TID 0000.0001) %MON dynstat_theta_del2           =   9.0503476848550E-05
(PID.TID 0000.0001) %MON dynstat_salt_max             =   4.0711543646340E+01
(PID.TID 0000.0001) %MON dynstat_salt_min             =   5.3966595214025E+00
(PID.TID 0000.0001) %MON dynstat_salt_mean            =   3.4725561830441E+01
(PID.TID 0000.0001) %MON dynstat_salt_sd              =   3.7710726110229E-01
(PID.TID 0000.0001) %MON dynstat_salt_del2            =   3.5120115155670E-05
(PID.TID 0000.0001) %MON dynstat_sst_max              =   3.1770456266424E+01
(PID.TID 0000.0001) %MON dynstat_sst_min              =  -1.8102546625392E+00
(PID.TID 0000.0001) %MON dynstat_sst_mean             =   1.8447175121210E+01
(PID.TID 0000.0001) %MON dynstat_sst_sd               =   1.0284433720773E+01
(PID.TID 0000.0001) %MON dynstat_sst_del2             =   7.9520528450073E-04
(PID.TID 0000.0001) %MON dynstat_sss_max              =   3.9098351849893E+01
(PID.TID 0000.0001) %MON dynstat_sss_min              =   5.3966595214025E+00
(PID.TID 0000.0001) %MON dynstat_sss_mean             =   3.4701027707026E+01
(PID.TID 0000.0001) %MON dynstat_sss_sd               =   1.1815007121706E+00
(PID.TID 0000.0001) %MON dynstat_sss_del2             =   1.0657087881667E-03
(PID.TID 0000.0001) %MON forcing_qnet_max             =   1.6739238281250E+03
(PID.TID 0000.0001) %MON forcing_qnet_min             =  -6.3698889160156E+02
(PID.TID 0000.0001) %MON forcing_qnet_mean            =   3.0633493771657E+01
(PID.TID 0000.0001) %MON forcing_qnet_sd              =   1.8261506333195E+02
(PID.TID 0000.0001) %MON forcing_qnet_del2            =   3.0992305083383E-01
(PID.TID 0000.0001) %MON forcing_qsw_max              =   0.0000000000000E+00
(PID.TID 0000.0001) %MON forcing_qsw_min              =  -9.9706680198400E+01
(PID.TID 0000.0001) %MON forcing_qsw_mean             =  -1.4510864640788E+01
(PID.TID 0000.0001) %MON forcing_qsw_sd               =   2.4568856064865E+01
(PID.TID 0000.0001) %MON forcing_qsw_del2             =   2.0117056017724E-02
(PID.TID 0000.0001) %MON forcing_empmr_max            =   1.2953017139807E-03
(PID.TID 0000.0001) %MON forcing_empmr_min            =  -6.3288189470768E-02
(PID.TID 0000.0001) %MON forcing_empmr_mean           =  -3.2276776322520E-06
(PID.TID 0000.0001) %MON forcing_empmr_sd             =   2.6782919116339E-04
(PID.TID 0000.0001) %MON forcing_empmr_del2           =   2.7223073974411E-06
(PID.TID 0000.0001) %MON forcing_fu_max               =   1.0026475787163E+00
(PID.TID 0000.0001) %MON forcing_fu_min               =  -1.1797041893005E+00
(PID.TID 0000.0001) %MON forcing_fu_mean              =   5.3739292939085E-04
(PID.TID 0000.0001) %MON forcing_fu_sd                =   1.0526641352848E-01
(PID.TID 0000.0001) %MON forcing_fu_del2              =   1.5039428852435E-04
(PID.TID 0000.0001) %MON forcing_fv_max               =   8.9609587192535E-01
(PID.TID 0000.0001) %MON forcing_fv_min               =  -7.3814965436124E-01
(PID.TID 0000.0001) %MON forcing_fv_mean              =  -1.0641249699600E-02
(PID.TID 0000.0001) %MON forcing_fv_sd                =   1.0988113427822E-01
(PID.TID 0000.0001) %MON forcing_fv_del2              =   1.4140776109817E-04
(PID.TID 0000.0001) %MON trAdv_CFL_u_max              =   1.1145361274948E-02
(PID.TID 0000.0001) %MON trAdv_CFL_v_max              =   1.2139999885661E-02
(PID.TID 0000.0001) %MON trAdv_CFL_w_max              =   1.9257733922620E-02
(PID.TID 0000.0001) %MON advcfl_uvel_max              =   9.2310558118118E-03
(PID.TID 0000.0001) %MON advcfl_vvel_max              =   1.1449224648601E-02
(PID.TID 0000.0001) %MON advcfl_wvel_max              =   2.0636519243218E-02
(PID.TID 0000.0001) %MON advcfl_W_hf_max              =   2.1642950422668E-02
(PID.TID 0000.0001) %MON pe_b_mean                    =   5.0973326848618E-04
(PID.TID 0000.0001) %MON ke_max                       =   4.6961679897558E-01
(PID.TID 0000.0001) %MON ke_mean                      =   3.3415080786930E-04
(PID.TID 0000.0001) %MON ke_vol                       =   1.3349982746881E+18
(PID.TID 0000.0001) %MON vort_r_min                   =  -1.2851543775215E-05
(PID.TID 0000.0001) %MON vort_r_max                   =   1.5199940012855E-05
(PID.TID 0000.0001) %MON vort_a_mean                  =  -1.9727864647440E-05
(PID.TID 0000.0001) %MON vort_a_sd                    =   7.4542958444455E-05
(PID.TID 0000.0001) %MON vort_p_mean                  =  -2.1760527125474E-05
(PID.TID 0000.0001) %MON vort_p_sd                    =   9.7246124145014E-05
(PID.TID 0000.0001) %MON surfExpan_theta_mean         =  -2.9153245026616E-09
(PID.TID 0000.0001) %MON surfExpan_salt_mean          =   7.4279571870859E-08
(PID.TID 0000.0001) // =======================================================
(PID.TID 0000.0001) // End MONITOR dynamic field statistics
(PID.TID 0000.0001) // =======================================================
(PID.TID 0000.0001) // =======================================================
(PID.TID 0000.0001) // Begin MONITOR SEAICE statistics
(PID.TID 0000.0001) // =======================================================
(PID.TID 0000.0001) %MON seaice_tsnumber              =                  1016
(PID.TID 0000.0001) %MON seaice_time_sec              =   9.1440000000000E+05
(PID.TID 0000.0001) %MON seaice_uice_max              =   4.0000000000000E-01
(PID.TID 0000.0001) %MON seaice_uice_min              =  -4.0000000000000E-01
(PID.TID 0000.0001) %MON seaice_uice_mean             =  -8.3054598624025E-03
(PID.TID 0000.0001) %MON seaice_uice_sd               =   1.9802383574176E-01
(PID.TID 0000.0001) %MON seaice_uice_del2             =   2.2931571122150E-04
(PID.TID 0000.0001) %MON seaice_vice_max              =   4.0000000000000E-01
(PID.TID 0000.0001) %MON seaice_vice_min              =  -4.0000000000000E-01
(PID.TID 0000.0001) %MON seaice_vice_mean             =  -2.1960776359499E-02
(PID.TID 0000.0001) %MON seaice_vice_sd               =   2.1302038025672E-01
(PID.TID 0000.0001) %MON seaice_vice_del2             =   2.3932563818061E-04
(PID.TID 0000.0001) %MON seaice_area_max              =   9.9999999813735E-01
(PID.TID 0000.0001) %MON seaice_area_min              =   0.0000000000000E+00
(PID.TID 0000.0001) %MON seaice_area_mean             =   6.4953953521046E-02
(PID.TID 0000.0001) %MON seaice_area_sd               =   2.2825773658746E-01
(PID.TID 0000.0001) %MON seaice_area_del2             =   3.7796306261837E-04
(PID.TID 0000.0001) %MON seaice_heff_max              =   2.4919281531009E+01
(PID.TID 0000.0001) %MON seaice_heff_min              =   0.0000000000000E+00
(PID.TID 0000.0001) %MON seaice_heff_mean             =   2.1172636707505E-01
(PID.TID 0000.0001) %MON seaice_heff_sd               =   1.0657504388936E+00
(PID.TID 0000.0001) %MON seaice_heff_del2             =   3.8203673713537E-03
(PID.TID 0000.0001) %MON seaice_hsnow_max             =   8.2308766802016E+00
(PID.TID 0000.0001) %MON seaice_hsnow_min             =   0.0000000000000E+00
(PID.TID 0000.0001) %MON seaice_hsnow_mean            =   2.3857455492443E-02
(PID.TID 0000.0001) %MON seaice_hsnow_sd              =   1.5580626917279E-01
(PID.TID 0000.0001) %MON seaice_hsnow_del2            =   1.2356118246494E-03
(PID.TID 0000.0001) // =======================================================
(PID.TID 0000.0001) // End MONITOR SEAICE statistics
(PID.TID 0000.0001) // =======================================================
 Computing Diagnostic #     86  oceQnet      Counter:       4   Parms: SM      U1      
 Computing Diagnostic #     87  oceQsw       Counter:       4   Parms: SM      U1      
 Computing Diagnostic #     84  oceFWflx     Counter:       4   Parms: SM      U1      
 Computing Diagnostic #     85  oceSflux     Counter:       4   Parms: SM      U1      
 Computing Diagnostic #     80  oceTAUX      Counter:       4   Parms: UU      U1      
           Vector  Mate for  oceTAUX      Diagnostic #     81  oceTAUY  exists 
 Computing Diagnostic #     81  oceTAUY      Counter:       4   Parms: VV      U1      
           Vector  Mate for  oceTAUY      Diagnostic #     80  oceTAUX  exists 
 Computing Diagnostic #     26  THETA        Counter:       4   Parms: SMR     MR      
 Computing Diagnostic #     27  SALT         Counter:       4   Parms: SMR     MR      
 Computing Diagnostic #     30  UVEL         Counter:       4   Parms: UUR     MR      
           Vector  Mate for  UVEL         Diagnostic #     31  VVEL     exists 
 Computing Diagnostic #     31  VVEL         Counter:       4   Parms: VVR     MR      
           Vector  Mate for  VVEL         Diagnostic #     30  UVEL     exists 
 Computing Diagnostic #    214  SIarea       Counter:       4   Parms: SM      M1      
 Computing Diagnostic #    217  SIheff       Counter:       4   Parms: SM      M1      
 Computing Diagnostic #    219  SIhsnow      Counter:       4   Parms: SM      M1      
 Computing Diagnostic #     83  sIceLoad     Counter:       4   Parms: SM      U1      
 Computing Diagnostic #    223  SIuice       Counter:       4   Parms: UU      M1      
           Vector  Mate for  SIuice       Diagnostic #    224  SIvice   exists 
 Computing Diagnostic #    224  SIvice       Counter:       4   Parms: VV      M1      
           Vector  Mate for  SIvice       Diagnostic #    223  SIuice   exists 
 Computing Diagnostic #    225  SItaux       Counter:       4   Parms: UU      U1      
           Vector  Mate for  SItaux       Diagnostic #    226  SItauy   exists 
 Computing Diagnostic #    226  SItauy       Counter:       4   Parms: VV      U1      
           Vector  Mate for  SItauy       Diagnostic #    225  SItaux   exists 
 Computing Diagnostic #    285  SIareaN      Counter:       4   Parms: SM      MX      
 Computing Diagnostic #    284  SIheffN      Counter:       4   Parms: SM      MX      
 Computing Diagnostic #    286  SIhsnowN     Counter:       4   Parms: SM      MX      
 Compute Stats, Diag. #    214  SIarea    vol(   0 ): 3.580E+14  Parms: SM      M1      
 Compute Stats, Diag. #    217  SIheff    vol(   0 ): 3.580E+14  Parms: SM      M1      
 Compute Stats, Diag. #    219  SIhsnow   vol(   0 ): 3.580E+14  Parms: SM      M1      
 Compute Stats, Diag. #     83  sIceLoad  vol(   0 ): 3.580E+14  Parms: SM      U1      
 Compute Stats, Diag. #    223  SIuice    vol(   0 ): 3.513E+14  Parms: UU      M1      
 Compute Stats, Diag. #    224  SIvice    vol(   0 ): 3.508E+14  Parms: VV      M1      
 Compute Stats, Diag. #    225  SItaux    vol(   0 ): 3.513E+14  Parms: UU      U1      
 Compute Stats, Diag. #    226  SItauy    vol(   0 ): 3.508E+14  Parms: VV      U1      
 cg2d: Sum(rhs),rhsMax =  -3.53007019736182E+01  2.83502970819420E-01
 Compute Stats, Diag. #    214  SIarea    vol(   0 ): 3.580E+14  Parms: SM      M1      
 Compute Stats, Diag. #    217  SIheff    vol(   0 ): 3.580E+14  Parms: SM      M1      
 Compute Stats, Diag. #    219  SIhsnow   vol(   0 ): 3.580E+14  Parms: SM      M1      
 Compute Stats, Diag. #     83  sIceLoad  vol(   0 ): 3.580E+14  Parms: SM      U1      
 Compute Stats, Diag. #    223  SIuice    vol(   0 ): 3.513E+14  Parms: UU      M1      
 Compute Stats, Diag. #    224  SIvice    vol(   0 ): 3.508E+14  Parms: VV      M1      
 Compute Stats, Diag. #    225  SItaux    vol(   0 ): 3.513E+14  Parms: UU      U1      
 Compute Stats, Diag. #    226  SItauy    vol(   0 ): 3.508E+14  Parms: VV      U1      
 cg2d: Sum(rhs),rhsMax =  -3.53966460755580E+01  2.83488277083136E-01
 Compute Stats, Diag. #    214  SIarea    vol(   0 ): 3.580E+14  Parms: SM      M1      
 Compute Stats, Diag. #    217  SIheff    vol(   0 ): 3.580E+14  Parms: SM      M1      
 Compute Stats, Diag. #    219  SIhsnow   vol(   0 ): 3.580E+14  Parms: SM      M1      
 Compute Stats, Diag. #     83  sIceLoad  vol(   0 ): 3.580E+14  Parms: SM      U1      
 Compute Stats, Diag. #    223  SIuice    vol(   0 ): 3.513E+14  Parms: UU      M1      
 Compute Stats, Diag. #    224  SIvice    vol(   0 ): 3.508E+14  Parms: VV      M1      
 Compute Stats, Diag. #    225  SItaux    vol(   0 ): 3.513E+14  Parms: UU      U1      
 Compute Stats, Diag. #    226  SItauy    vol(   0 ): 3.508E+14  Parms: VV      U1      
 cg2d: Sum(rhs),rhsMax =  -3.55066384195240E+01  2.83468940559196E-01
 Compute Stats, Diag. #    214  SIarea    vol(   0 ): 3.580E+14  Parms: SM      M1      
 Compute Stats, Diag. #    217  SIheff    vol(   0 ): 3.580E+14  Parms: SM      M1      
 Compute Stats, Diag. #    219  SIhsnow   vol(   0 ): 3.580E+14  Parms: SM      M1      
 Compute Stats, Diag. #     83  sIceLoad  vol(   0 ): 3.580E+14  Parms: SM      U1      
 Compute Stats, Diag. #    223  SIuice    vol(   0 ): 3.513E+14  Parms: UU      M1      
 Compute Stats, Diag. #    224  SIvice    vol(   0 ): 3.508E+14  Parms: VV      M1      
 Compute Stats, Diag. #    225  SItaux    vol(   0 ): 3.513E+14  Parms: UU      U1      
 Compute Stats, Diag. #    226  SItauy    vol(   0 ): 3.508E+14  Parms: VV      U1      
 cg2d: Sum(rhs),rhsMax =  -3.56211110416719E+01  2.83444972062169E-01
 Computing Diagnostic #     86  oceQnet      Counter:       4   Parms: SM      U1      
 Computing Diagnostic #     87  oceQsw       Counter:       4   Parms: SM      U1      
 Computing Diagnostic #     84  oceFWflx     Counter:       4   Parms: SM      U1      
 Computing Diagnostic #     85  oceSflux     Counter:       4   Parms: SM      U1      
 Computing Diagnostic #     80  oceTAUX      Counter:       4   Parms: UU      U1      
           Vector  Mate for  oceTAUX      Diagnostic #     81  oceTAUY  exists 
 Computing Diagnostic #     81  oceTAUY      Counter:       4   Parms: VV      U1      
           Vector  Mate for  oceTAUY      Diagnostic #     80  oceTAUX  exists 
 Computing Diagnostic #     26  THETA        Counter:       4   Parms: SMR     MR      
 Computing Diagnostic #     27  SALT         Counter:       4   Parms: SMR     MR      
 Computing Diagnostic #     30  UVEL         Counter:       4   Parms: UUR     MR      
           Vector  Mate for  UVEL         Diagnostic #     31  VVEL     exists 
 Computing Diagnostic #     31  VVEL         Counter:       4   Parms: VVR     MR      
           Vector  Mate for  VVEL         Diagnostic #     30  UVEL     exists 
 Computing Diagnostic #    214  SIarea       Counter:       4   Parms: SM      M1      
 Computing Diagnostic #    217  SIheff       Counter:       4   Parms: SM      M1      
 Computing Diagnostic #    219  SIhsnow      Counter:       4   Parms: SM      M1      
 Computing Diagnostic #     83  sIceLoad     Counter:       4   Parms: SM      U1      
 Computing Diagnostic #    223  SIuice       Counter:       4   Parms: UU      M1      
           Vector  Mate for  SIuice       Diagnostic #    224  SIvice   exists 
 Computing Diagnostic #    224  SIvice       Counter:       4   Parms: VV      M1      
           Vector  Mate for  SIvice       Diagnostic #    223  SIuice   exists 
 Computing Diagnostic #    225  SItaux       Counter:       4   Parms: UU      U1      
           Vector  Mate for  SItaux       Diagnostic #    226  SItauy   exists 
 Computing Diagnostic #    226  SItauy       Counter:       4   Parms: VV      U1      
           Vector  Mate for  SItauy       Diagnostic #    225  SItaux   exists 
 Computing Diagnostic #    285  SIareaN      Counter:       4   Parms: SM      MX      
 Computing Diagnostic #    284  SIheffN      Counter:       4   Parms: SM      MX      
 Computing Diagnostic #    286  SIhsnowN     Counter:       4   Parms: SM      MX      
 Compute Stats, Diag. #    214  SIarea    vol(   0 ): 3.580E+14  Parms: SM      M1      
 Compute Stats, Diag. #    217  SIheff    vol(   0 ): 3.580E+14  Parms: SM      M1      
 Compute Stats, Diag. #    219  SIhsnow   vol(   0 ): 3.580E+14  Parms: SM      M1      
 Compute Stats, Diag. #     83  sIceLoad  vol(   0 ): 3.580E+14  Parms: SM      U1      
 Compute Stats, Diag. #    223  SIuice    vol(   0 ): 3.513E+14  Parms: UU      M1      
 Compute Stats, Diag. #    224  SIvice    vol(   0 ): 3.508E+14  Parms: VV      M1      
 Compute Stats, Diag. #    225  SItaux    vol(   0 ): 3.513E+14  Parms: UU      U1      
 Compute Stats, Diag. #    226  SItauy    vol(   0 ): 3.508E+14  Parms: VV      U1      
 cg2d: Sum(rhs),rhsMax =  -3.57381635501585E+01  2.83417431727859E-01
 Compute Stats, Diag. #    214  SIarea    vol(   0 ): 3.580E+14  Parms: SM      M1      
 Compute Stats, Diag. #    217  SIheff    vol(   0 ): 3.580E+14  Parms: SM      M1      
 Compute Stats, Diag. #    219  SIhsnow   vol(   0 ): 3.580E+14  Parms: SM      M1      
 Compute Stats, Diag. #     83  sIceLoad  vol(   0 ): 3.580E+14  Parms: SM      U1      
 Compute Stats, Diag. #    223  SIuice    vol(   0 ): 3.513E+14  Parms: UU      M1      
 Compute Stats, Diag. #    224  SIvice    vol(   0 ): 3.508E+14  Parms: VV      M1      
 Compute Stats, Diag. #    225  SItaux    vol(   0 ): 3.513E+14  Parms: UU      U1      
 Compute Stats, Diag. #    226  SItauy    vol(   0 ): 3.508E+14  Parms: VV      U1      
 cg2d: Sum(rhs),rhsMax =  -3.58639565231911E+01  2.83388348935791E-01
 Compute Stats, Diag. #    214  SIarea    vol(   0 ): 3.580E+14  Parms: SM      M1      
 Compute Stats, Diag. #    217  SIheff    vol(   0 ): 3.580E+14  Parms: SM      M1      
 Compute Stats, Diag. #    219  SIhsnow   vol(   0 ): 3.580E+14  Parms: SM      M1      
 Compute Stats, Diag. #     83  sIceLoad  vol(   0 ): 3.580E+14  Parms: SM      U1      
 Compute Stats, Diag. #    223  SIuice    vol(   0 ): 3.513E+14  Parms: UU      M1      
 Compute Stats, Diag. #    224  SIvice    vol(   0 ): 3.508E+14  Parms: VV      M1      
 Compute Stats, Diag. #    225  SItaux    vol(   0 ): 3.513E+14  Parms: UU      U1      
 Compute Stats, Diag. #    226  SItauy    vol(   0 ): 3.508E+14  Parms: VV      U1      
 cg2d: Sum(rhs),rhsMax =  -3.59991000639359E+01  2.83360727205555E-01
 Compute Stats, Diag. #    214  SIarea    vol(   0 ): 3.580E+14  Parms: SM      M1      
 Compute Stats, Diag. #    217  SIheff    vol(   0 ): 3.580E+14  Parms: SM      M1      
 Compute Stats, Diag. #    219  SIhsnow   vol(   0 ): 3.580E+14  Parms: SM      M1      
 Compute Stats, Diag. #     83  sIceLoad  vol(   0 ): 3.580E+14  Parms: SM      U1      
 Compute Stats, Diag. #    223  SIuice    vol(   0 ): 3.513E+14  Parms: UU      M1      
 Compute Stats, Diag. #    224  SIvice    vol(   0 ): 3.508E+14  Parms: VV      M1      
 Compute Stats, Diag. #    225  SItaux    vol(   0 ): 3.513E+14  Parms: UU      U1      
 Compute Stats, Diag. #    226  SItauy    vol(   0 ): 3.508E+14  Parms: VV      U1      
 cg2d: Sum(rhs),rhsMax =  -3.61420539791539E+01  2.83334458329555E-01
(PID.TID 0000.0001)      cg2d_init_res =   4.38110262589692E-02
(PID.TID 0000.0001)      cg2d_iters(min,last) =      -1      24
(PID.TID 0000.0001)      cg2d_last_res =   2.40152236297141E-05
(PID.TID 0000.0001) // =======================================================
(PID.TID 0000.0001) // Begin MONITOR dynamic field statistics
(PID.TID 0000.0001) // =======================================================
(PID.TID 0000.0001) %MON time_tsnumber                =                  1024
(PID.TID 0000.0001) %MON time_secondsf                =   9.2160000000000E+05
(PID.TID 0000.0001) %MON dynstat_eta_max              =   1.0107211323246E+00
(PID.TID 0000.0001) %MON dynstat_eta_min              =  -1.8012925215054E+00
(PID.TID 0000.0001) %MON dynstat_eta_mean             =   1.1432885974222E-03
(PID.TID 0000.0001) %MON dynstat_eta_sd               =   6.2237094090154E-01
(PID.TID 0000.0001) %MON dynstat_eta_del2             =   5.0959044346747E-05
(PID.TID 0000.0001) %MON dynstat_uvel_max             =   6.8559966770696E-01
(PID.TID 0000.0001) %MON dynstat_uvel_min             =  -8.6389870595851E-01
(PID.TID 0000.0001) %MON dynstat_uvel_mean            =   1.3218329660072E-03
(PID.TID 0000.0001) %MON dynstat_uvel_sd              =   1.7873208151918E-02
(PID.TID 0000.0001) %MON dynstat_uvel_del2            =   7.0702290661787E-06
(PID.TID 0000.0001) %MON dynstat_vvel_max             =   5.7413174852386E-01
(PID.TID 0000.0001) %MON dynstat_vvel_min             =  -9.5842011387706E-01
(PID.TID 0000.0001) %MON dynstat_vvel_mean            =   9.8505277319756E-04
(PID.TID 0000.0001) %MON dynstat_vvel_sd              =   1.9272833949884E-02
(PID.TID 0000.0001) %MON dynstat_vvel_del2            =   7.1823149830649E-06
(PID.TID 0000.0001) %MON dynstat_wvel_max             =   2.8827279124854E-04
(PID.TID 0000.0001) %MON dynstat_wvel_min             =  -7.5869902746412E-04
(PID.TID 0000.0001) %MON dynstat_wvel_mean            =  -6.8955443308296E-09
(PID.TID 0000.0001) %MON dynstat_wvel_sd              =   1.6163662820968E-05
(PID.TID 0000.0001) %MON dynstat_wvel_del2            =   1.3691251317105E-08
(PID.TID 0000.0001) %MON dynstat_theta_max            =   3.1759362921193E+01
(PID.TID 0000.0001) %MON dynstat_theta_min            =  -2.0396645086359E+00
(PID.TID 0000.0001) %MON dynstat_theta_mean           =   3.5901187728853E+00
(PID.TID 0000.0001) %MON dynstat_theta_sd             =   4.4366646517198E+00
(PID.TID 0000.0001) %MON dynstat_theta_del2           =   9.0452014024342E-05
(PID.TID 0000.0001) %MON dynstat_salt_max             =   4.0711543898866E+01
(PID.TID 0000.0001) %MON dynstat_salt_min             =   5.3479266801383E+00
(PID.TID 0000.0001) %MON dynstat_salt_mean            =   3.4725561582592E+01
(PID.TID 0000.0001) %MON dynstat_salt_sd              =   3.7710805922700E-01
(PID.TID 0000.0001) %MON dynstat_salt_del2            =   3.5086961995569E-05
(PID.TID 0000.0001) %MON dynstat_sst_max              =   3.1750434485973E+01
(PID.TID 0000.0001) %MON dynstat_sst_min              =  -1.8089887028825E+00
(PID.TID 0000.0001) %MON dynstat_sst_mean             =   1.8445821278797E+01
(PID.TID 0000.0001) %MON dynstat_sst_sd               =   1.0284619171976E+01
(PID.TID 0000.0001) %MON dynstat_sst_del2             =   7.9355657155422E-04
(PID.TID 0000.0001) %MON dynstat_sss_max              =   3.9098253181919E+01
(PID.TID 0000.0001) %MON dynstat_sss_min              =   5.3479266801383E+00
(PID.TID 0000.0001) %MON dynstat_sss_mean             =   3.4701020977174E+01
(PID.TID 0000.0001) %MON dynstat_sss_sd               =   1.1817157107419E+00
(PID.TID 0000.0001) %MON dynstat_sss_del2             =   1.0630757492950E-03
(PID.TID 0000.0001) %MON forcing_qnet_max             =   7.4103875732422E+02
(PID.TID 0000.0001) %MON forcing_qnet_min             =  -1.0573992720769E+03
(PID.TID 0000.0001) %MON forcing_qnet_mean            =   2.2268138748614E+01
(PID.TID 0000.0001) %MON forcing_qnet_sd              =   2.0609095743598E+02
(PID.TID 0000.0001) %MON forcing_qnet_del2            =   3.1491558880402E-01
(PID.TID 0000.0001) %MON forcing_qsw_max              =   0.0000000000000E+00
(PID.TID 0000.0001) %MON forcing_qsw_min              =  -1.0478335517083E+02
(PID.TID 0000.0001) %MON forcing_qsw_mean             =  -1.5749520055636E+01
(PID.TID 0000.0001) %MON forcing_qsw_sd               =   2.7900425945159E+01
(PID.TID 0000.0001) %MON forcing_qsw_del2             =   2.0778935950717E-02
(PID.TID 0000.0001) %MON forcing_empmr_max            =   1.3753256062046E-03
(PID.TID 0000.0001) %MON forcing_empmr_min            =  -7.0950448513031E-02
(PID.TID 0000.0001) %MON forcing_empmr_mean           =  -5.1702549789379E-06
(PID.TID 0000.0001) %MON forcing_empmr_sd             =   2.9486585536369E-04
(PID.TID 0000.0001) %MON forcing_empmr_del2           =   3.0209445053696E-06
(PID.TID 0000.0001) %MON forcing_fu_max               =   9.6585088968277E-01
(PID.TID 0000.0001) %MON forcing_fu_min               =  -1.1657139062881E+00
(PID.TID 0000.0001) %MON forcing_fu_mean              =   9.0057113732006E-04
(PID.TID 0000.0001) %MON forcing_fu_sd                =   1.0512926707411E-01
(PID.TID 0000.0001) %MON forcing_fu_del2              =   1.4773369357911E-04
(PID.TID 0000.0001) %MON forcing_fv_max               =   8.5229769349098E-01
(PID.TID 0000.0001) %MON forcing_fv_min               =  -7.0753890275955E-01
(PID.TID 0000.0001) %MON forcing_fv_mean              =  -1.0147699200163E-02
(PID.TID 0000.0001) %MON forcing_fv_sd                =   1.0845522311520E-01
(PID.TID 0000.0001) %MON forcing_fv_del2              =   1.3758052831237E-04
(PID.TID 0000.0001) %MON trAdv_CFL_u_max              =   1.1090095754982E-02
(PID.TID 0000.0001) %MON trAdv_CFL_v_max              =   1.2065781000508E-02
(PID.TID 0000.0001) %MON trAdv_CFL_w_max              =   2.0333404697108E-02
(PID.TID 0000.0001) %MON advcfl_uvel_max              =   9.4360749010286E-03
(PID.TID 0000.0001) %MON advcfl_vvel_max              =   1.1540203512107E-02
(PID.TID 0000.0001) %MON advcfl_wvel_max              =   2.0991479354124E-02
(PID.TID 0000.0001) %MON advcfl_W_hf_max              =   2.2015278631619E-02
(PID.TID 0000.0001) %MON pe_b_mean                    =   5.0951646725979E-04
(PID.TID 0000.0001) %MON ke_max                       =   4.7653409576540E-01
(PID.TID 0000.0001) %MON ke_mean                      =   3.3445652347120E-04
(PID.TID 0000.0001) %MON ke_vol                       =   1.3349982846335E+18
(PID.TID 0000.0001) %MON vort_r_min                   =  -1.6624715761578E-05
(PID.TID 0000.0001) %MON vort_r_max                   =   1.9095250412126E-05
(PID.TID 0000.0001) %MON vort_a_mean                  =  -1.9727864647440E-05
(PID.TID 0000.0001) %MON vort_a_sd                    =   7.4542960599381E-05
(PID.TID 0000.0001) %MON vort_p_mean                  =  -2.1760526883179E-05
(PID.TID 0000.0001) %MON vort_p_sd                    =   9.7246199211093E-05
(PID.TID 0000.0001) %MON surfExpan_theta_mean         =  -2.9155742748792E-08
(PID.TID 0000.0001) %MON surfExpan_salt_mean          =   7.1074519547068E-08
(PID.TID 0000.0001) // =======================================================
(PID.TID 0000.0001) // End MONITOR dynamic field statistics
(PID.TID 0000.0001) // =======================================================
(PID.TID 0000.0001) // =======================================================
(PID.TID 0000.0001) // Begin MONITOR SEAICE statistics
(PID.TID 0000.0001) // =======================================================
(PID.TID 0000.0001) %MON seaice_tsnumber              =                  1024
(PID.TID 0000.0001) %MON seaice_time_sec              =   9.2160000000000E+05
(PID.TID 0000.0001) %MON seaice_uice_max              =   4.0000000000000E-01
(PID.TID 0000.0001) %MON seaice_uice_min              =  -4.0000000000000E-01
(PID.TID 0000.0001) %MON seaice_uice_mean             =  -8.3054598624025E-03
(PID.TID 0000.0001) %MON seaice_uice_sd               =   1.9802383574176E-01
(PID.TID 0000.0001) %MON seaice_uice_del2             =   2.2931571122150E-04
(PID.TID 0000.0001) %MON seaice_vice_max              =   4.0000000000000E-01
(PID.TID 0000.0001) %MON seaice_vice_min              =  -4.0000000000000E-01
(PID.TID 0000.0001) %MON seaice_vice_mean             =  -2.1960776359499E-02
(PID.TID 0000.0001) %MON seaice_vice_sd               =   2.1302038025672E-01
(PID.TID 0000.0001) %MON seaice_vice_del2             =   2.3932563818061E-04
(PID.TID 0000.0001) %MON seaice_area_max              =   9.9999999813735E-01
(PID.TID 0000.0001) %MON seaice_area_min              =   0.0000000000000E+00
(PID.TID 0000.0001) %MON seaice_area_mean             =   6.4931206627392E-02
(PID.TID 0000.0001) %MON seaice_area_sd               =   2.2821888550181E-01
(PID.TID 0000.0001) %MON seaice_area_del2             =   3.7765560542219E-04
(PID.TID 0000.0001) %MON seaice_heff_max              =   2.4916394359199E+01
(PID.TID 0000.0001) %MON seaice_heff_min              =   0.0000000000000E+00
(PID.TID 0000.0001) %MON seaice_heff_mean             =   2.1170427370367E-01
(PID.TID 0000.0001) %MON seaice_heff_sd               =   1.0657300686070E+00
(PID.TID 0000.0001) %MON seaice_heff_del2             =   3.8197514637065E-03
(PID.TID 0000.0001) %MON seaice_hsnow_max             =   8.2299255305552E+00
(PID.TID 0000.0001) %MON seaice_hsnow_min             =   0.0000000000000E+00
(PID.TID 0000.0001) %MON seaice_hsnow_mean            =   2.3858647965573E-02
(PID.TID 0000.0001) %MON seaice_hsnow_sd              =   1.5579695559806E-01
(PID.TID 0000.0001) %MON seaice_hsnow_del2            =   1.2354761576471E-03
(PID.TID 0000.0001) // =======================================================
(PID.TID 0000.0001) // End MONITOR SEAICE statistics
(PID.TID 0000.0001) // =======================================================
 Computing Diagnostic #     86  oceQnet      Counter:       4   Parms: SM      U1      
 Computing Diagnostic #     87  oceQsw       Counter:       4   Parms: SM      U1      
 Computing Diagnostic #     84  oceFWflx     Counter:       4   Parms: SM      U1      
 Computing Diagnostic #     85  oceSflux     Counter:       4   Parms: SM      U1      
 Computing Diagnostic #     80  oceTAUX      Counter:       4   Parms: UU      U1      
           Vector  Mate for  oceTAUX      Diagnostic #     81  oceTAUY  exists 
 Computing Diagnostic #     81  oceTAUY      Counter:       4   Parms: VV      U1      
           Vector  Mate for  oceTAUY      Diagnostic #     80  oceTAUX  exists 
 Computing Diagnostic #     26  THETA        Counter:       4   Parms: SMR     MR      
 Computing Diagnostic #     27  SALT         Counter:       4   Parms: SMR     MR      
 Computing Diagnostic #     30  UVEL         Counter:       4   Parms: UUR     MR      
           Vector  Mate for  UVEL         Diagnostic #     31  VVEL     exists 
 Computing Diagnostic #     31  VVEL         Counter:       4   Parms: VVR     MR      
           Vector  Mate for  VVEL         Diagnostic #     30  UVEL     exists 
 Computing Diagnostic #    214  SIarea       Counter:       4   Parms: SM      M1      
 Computing Diagnostic #    217  SIheff       Counter:       4   Parms: SM      M1      
 Computing Diagnostic #    219  SIhsnow      Counter:       4   Parms: SM      M1      
 Computing Diagnostic #     83  sIceLoad     Counter:       4   Parms: SM      U1      
 Computing Diagnostic #    223  SIuice       Counter:       4   Parms: UU      M1      
           Vector  Mate for  SIuice       Diagnostic #    224  SIvice   exists 
 Computing Diagnostic #    224  SIvice       Counter:       4   Parms: VV      M1      
           Vector  Mate for  SIvice       Diagnostic #    223  SIuice   exists 
 Computing Diagnostic #    225  SItaux       Counter:       4   Parms: UU      U1      
           Vector  Mate for  SItaux       Diagnostic #    226  SItauy   exists 
 Computing Diagnostic #    226  SItauy       Counter:       4   Parms: VV      U1      
           Vector  Mate for  SItauy       Diagnostic #    225  SItaux   exists 
 Computing Diagnostic #    285  SIareaN      Counter:       4   Parms: SM      MX      
 Computing Diagnostic #    284  SIheffN      Counter:       4   Parms: SM      MX      
 Computing Diagnostic #    286  SIhsnowN     Counter:       4   Parms: SM      MX      
 Compute Stats, Diag. #    214  SIarea    vol(   0 ): 3.580E+14  Parms: SM      M1      
 Compute Stats, Diag. #    217  SIheff    vol(   0 ): 3.580E+14  Parms: SM      M1      
 Compute Stats, Diag. #    219  SIhsnow   vol(   0 ): 3.580E+14  Parms: SM      M1      
 Compute Stats, Diag. #     83  sIceLoad  vol(   0 ): 3.580E+14  Parms: SM      U1      
 Compute Stats, Diag. #    223  SIuice    vol(   0 ): 3.513E+14  Parms: UU      M1      
 Compute Stats, Diag. #    224  SIvice    vol(   0 ): 3.508E+14  Parms: VV      M1      
 Compute Stats, Diag. #    225  SItaux    vol(   0 ): 3.513E+14  Parms: UU      U1      
 Compute Stats, Diag. #    226  SItauy    vol(   0 ): 3.508E+14  Parms: VV      U1      
 cg2d: Sum(rhs),rhsMax =  -3.62866035355004E+01  2.83309226449092E-01
 Compute Stats, Diag. #    214  SIarea    vol(   0 ): 3.580E+14  Parms: SM      M1      
 Compute Stats, Diag. #    217  SIheff    vol(   0 ): 3.580E+14  Parms: SM      M1      
 Compute Stats, Diag. #    219  SIhsnow   vol(   0 ): 3.580E+14  Parms: SM      M1      
 Compute Stats, Diag. #     83  sIceLoad  vol(   0 ): 3.580E+14  Parms: SM      U1      
 Compute Stats, Diag. #    223  SIuice    vol(   0 ): 3.513E+14  Parms: UU      M1      
 Compute Stats, Diag. #    224  SIvice    vol(   0 ): 3.508E+14  Parms: VV      M1      
 Compute Stats, Diag. #    225  SItaux    vol(   0 ): 3.513E+14  Parms: UU      U1      
 Compute Stats, Diag. #    226  SItauy    vol(   0 ): 3.508E+14  Parms: VV      U1      
 cg2d: Sum(rhs),rhsMax =  -3.64382185436361E+01  2.83286836078832E-01
 Compute Stats, Diag. #    214  SIarea    vol(   0 ): 3.580E+14  Parms: SM      M1      
 Compute Stats, Diag. #    217  SIheff    vol(   0 ): 3.580E+14  Parms: SM      M1      
 Compute Stats, Diag. #    219  SIhsnow   vol(   0 ): 3.580E+14  Parms: SM      M1      
 Compute Stats, Diag. #     83  sIceLoad  vol(   0 ): 3.580E+14  Parms: SM      U1      
 Compute Stats, Diag. #    223  SIuice    vol(   0 ): 3.513E+14  Parms: UU      M1      
 Compute Stats, Diag. #    224  SIvice    vol(   0 ): 3.508E+14  Parms: VV      M1      
 Compute Stats, Diag. #    225  SItaux    vol(   0 ): 3.513E+14  Parms: UU      U1      
 Compute Stats, Diag. #    226  SItauy    vol(   0 ): 3.508E+14  Parms: VV      U1      
 cg2d: Sum(rhs),rhsMax =  -3.65873401991129E+01  2.83268630236932E-01
 Compute Stats, Diag. #    214  SIarea    vol(   0 ): 3.580E+14  Parms: SM      M1      
 Compute Stats, Diag. #    217  SIheff    vol(   0 ): 3.580E+14  Parms: SM      M1      
 Compute Stats, Diag. #    219  SIhsnow   vol(   0 ): 3.580E+14  Parms: SM      M1      
 Compute Stats, Diag. #     83  sIceLoad  vol(   0 ): 3.580E+14  Parms: SM      U1      
 Compute Stats, Diag. #    223  SIuice    vol(   0 ): 3.513E+14  Parms: UU      M1      
 Compute Stats, Diag. #    224  SIvice    vol(   0 ): 3.508E+14  Parms: VV      M1      
 Compute Stats, Diag. #    225  SItaux    vol(   0 ): 3.513E+14  Parms: UU      U1      
 Compute Stats, Diag. #    226  SItauy    vol(   0 ): 3.508E+14  Parms: VV      U1      
 cg2d: Sum(rhs),rhsMax =  -3.67316951646952E+01  2.83255354869447E-01
 Computing Diagnostic #     86  oceQnet      Counter:       4   Parms: SM      U1      
 Computing Diagnostic #     87  oceQsw       Counter:       4   Parms: SM      U1      
 Computing Diagnostic #     84  oceFWflx     Counter:       4   Parms: SM      U1      
 Computing Diagnostic #     85  oceSflux     Counter:       4   Parms: SM      U1      
 Computing Diagnostic #     80  oceTAUX      Counter:       4   Parms: UU      U1      
           Vector  Mate for  oceTAUX      Diagnostic #     81  oceTAUY  exists 
 Computing Diagnostic #     81  oceTAUY      Counter:       4   Parms: VV      U1      
           Vector  Mate for  oceTAUY      Diagnostic #     80  oceTAUX  exists 
 Computing Diagnostic #     26  THETA        Counter:       4   Parms: SMR     MR      
 Computing Diagnostic #     27  SALT         Counter:       4   Parms: SMR     MR      
 Computing Diagnostic #     30  UVEL         Counter:       4   Parms: UUR     MR      
           Vector  Mate for  UVEL         Diagnostic #     31  VVEL     exists 
 Computing Diagnostic #     31  VVEL         Counter:       4   Parms: VVR     MR      
           Vector  Mate for  VVEL         Diagnostic #     30  UVEL     exists 
 Computing Diagnostic #    214  SIarea       Counter:       4   Parms: SM      M1      
 Computing Diagnostic #    217  SIheff       Counter:       4   Parms: SM      M1      
 Computing Diagnostic #    219  SIhsnow      Counter:       4   Parms: SM      M1      
 Computing Diagnostic #     83  sIceLoad     Counter:       4   Parms: SM      U1      
 Computing Diagnostic #    223  SIuice       Counter:       4   Parms: UU      M1      
           Vector  Mate for  SIuice       Diagnostic #    224  SIvice   exists 
 Computing Diagnostic #    224  SIvice       Counter:       4   Parms: VV      M1      
           Vector  Mate for  SIvice       Diagnostic #    223  SIuice   exists 
 Computing Diagnostic #    225  SItaux       Counter:       4   Parms: UU      U1      
           Vector  Mate for  SItaux       Diagnostic #    226  SItauy   exists 
 Computing Diagnostic #    226  SItauy       Counter:       4   Parms: VV      U1      
           Vector  Mate for  SItauy       Diagnostic #    225  SItaux   exists 
 Computing Diagnostic #    285  SIareaN      Counter:       4   Parms: SM      MX      
 Computing Diagnostic #    284  SIheffN      Counter:       4   Parms: SM      MX      
 Computing Diagnostic #    286  SIhsnowN     Counter:       4   Parms: SM      MX      
 Compute Stats, Diag. #    214  SIarea    vol(   0 ): 3.580E+14  Parms: SM      M1      
 Compute Stats, Diag. #    217  SIheff    vol(   0 ): 3.580E+14  Parms: SM      M1      
 Compute Stats, Diag. #    219  SIhsnow   vol(   0 ): 3.580E+14  Parms: SM      M1      
 Compute Stats, Diag. #     83  sIceLoad  vol(   0 ): 3.580E+14  Parms: SM      U1      
 Compute Stats, Diag. #    223  SIuice    vol(   0 ): 3.513E+14  Parms: UU      M1      
 Compute Stats, Diag. #    224  SIvice    vol(   0 ): 3.508E+14  Parms: VV      M1      
 Compute Stats, Diag. #    225  SItaux    vol(   0 ): 3.513E+14  Parms: UU      U1      
 Compute Stats, Diag. #    226  SItauy    vol(   0 ): 3.508E+14  Parms: VV      U1      
 cg2d: Sum(rhs),rhsMax =  -3.68832864388811E+01  2.83246853953524E-01
 Compute Stats, Diag. #    214  SIarea    vol(   0 ): 3.580E+14  Parms: SM      M1      
 Compute Stats, Diag. #    217  SIheff    vol(   0 ): 3.580E+14  Parms: SM      M1      
 Compute Stats, Diag. #    219  SIhsnow   vol(   0 ): 3.580E+14  Parms: SM      M1      
 Compute Stats, Diag. #     83  sIceLoad  vol(   0 ): 3.580E+14  Parms: SM      U1      
 Compute Stats, Diag. #    223  SIuice    vol(   0 ): 3.513E+14  Parms: UU      M1      
 Compute Stats, Diag. #    224  SIvice    vol(   0 ): 3.508E+14  Parms: VV      M1      
 Compute Stats, Diag. #    225  SItaux    vol(   0 ): 3.513E+14  Parms: UU      U1      
 Compute Stats, Diag. #    226  SItauy    vol(   0 ): 3.508E+14  Parms: VV      U1      
 cg2d: Sum(rhs),rhsMax =  -3.70442386785117E+01  2.83242524238988E-01
 Compute Stats, Diag. #    214  SIarea    vol(   0 ): 3.580E+14  Parms: SM      M1      
 Compute Stats, Diag. #    217  SIheff    vol(   0 ): 3.580E+14  Parms: SM      M1      
 Compute Stats, Diag. #    219  SIhsnow   vol(   0 ): 3.580E+14  Parms: SM      M1      
 Compute Stats, Diag. #     83  sIceLoad  vol(   0 ): 3.580E+14  Parms: SM      U1      
 Compute Stats, Diag. #    223  SIuice    vol(   0 ): 3.513E+14  Parms: UU      M1      
 Compute Stats, Diag. #    224  SIvice    vol(   0 ): 3.508E+14  Parms: VV      M1      
 Compute Stats, Diag. #    225  SItaux    vol(   0 ): 3.513E+14  Parms: UU      U1      
 Compute Stats, Diag. #    226  SItauy    vol(   0 ): 3.508E+14  Parms: VV      U1      
 cg2d: Sum(rhs),rhsMax =  -3.72063409209523E+01  2.83242236940340E-01
 Compute Stats, Diag. #    214  SIarea    vol(   0 ): 3.580E+14  Parms: SM      M1      
 Compute Stats, Diag. #    217  SIheff    vol(   0 ): 3.580E+14  Parms: SM      M1      
 Compute Stats, Diag. #    219  SIhsnow   vol(   0 ): 3.580E+14  Parms: SM      M1      
 Compute Stats, Diag. #     83  sIceLoad  vol(   0 ): 3.580E+14  Parms: SM      U1      
 Compute Stats, Diag. #    223  SIuice    vol(   0 ): 3.513E+14  Parms: UU      M1      
 Compute Stats, Diag. #    224  SIvice    vol(   0 ): 3.508E+14  Parms: VV      M1      
 Compute Stats, Diag. #    225  SItaux    vol(   0 ): 3.513E+14  Parms: UU      U1      
 Compute Stats, Diag. #    226  SItauy    vol(   0 ): 3.508E+14  Parms: VV      U1      
 cg2d: Sum(rhs),rhsMax =  -3.73703457284082E+01  2.83247082696171E-01
(PID.TID 0000.0001)      cg2d_init_res =   4.32605883821662E-02
(PID.TID 0000.0001)      cg2d_iters(min,last) =      -1      24
(PID.TID 0000.0001)      cg2d_last_res =   2.25905168343911E-05
(PID.TID 0000.0001) // =======================================================
(PID.TID 0000.0001) // Begin MONITOR dynamic field statistics
(PID.TID 0000.0001) // =======================================================
(PID.TID 0000.0001) %MON time_tsnumber                =                  1032
(PID.TID 0000.0001) %MON time_secondsf                =   9.2880000000000E+05
(PID.TID 0000.0001) %MON dynstat_eta_max              =   1.0101021493103E+00
(PID.TID 0000.0001) %MON dynstat_eta_min              =  -1.8010094960418E+00
(PID.TID 0000.0001) %MON dynstat_eta_mean             =   1.1821433883546E-03
(PID.TID 0000.0001) %MON dynstat_eta_sd               =   6.2223071254121E-01
(PID.TID 0000.0001) %MON dynstat_eta_del2             =   5.1172155153683E-05
(PID.TID 0000.0001) %MON dynstat_uvel_max             =   6.8651741033574E-01
(PID.TID 0000.0001) %MON dynstat_uvel_min             =  -8.7282131554388E-01
(PID.TID 0000.0001) %MON dynstat_uvel_mean            =   1.3289878468956E-03
(PID.TID 0000.0001) %MON dynstat_uvel_sd              =   1.7878239175176E-02
(PID.TID 0000.0001) %MON dynstat_uvel_del2            =   7.0571484856605E-06
(PID.TID 0000.0001) %MON dynstat_vvel_max             =   6.2742574176127E-01
(PID.TID 0000.0001) %MON dynstat_vvel_min             =  -9.6986062010532E-01
(PID.TID 0000.0001) %MON dynstat_vvel_mean            =   9.9568180382145E-04
(PID.TID 0000.0001) %MON dynstat_vvel_sd              =   1.9282396647395E-02
(PID.TID 0000.0001) %MON dynstat_vvel_del2            =   7.1783318008952E-06
(PID.TID 0000.0001) %MON dynstat_wvel_max             =   2.9638475033731E-04
(PID.TID 0000.0001) %MON dynstat_wvel_min             =  -7.6438489526044E-04
(PID.TID 0000.0001) %MON dynstat_wvel_mean            =  -6.4422597403219E-09
(PID.TID 0000.0001) %MON dynstat_wvel_sd              =   1.6052065477346E-05
(PID.TID 0000.0001) %MON dynstat_wvel_del2            =   1.3652945897935E-08
(PID.TID 0000.0001) %MON dynstat_theta_max            =   3.1736889856013E+01
(PID.TID 0000.0001) %MON dynstat_theta_min            =  -2.0396583102396E+00
(PID.TID 0000.0001) %MON dynstat_theta_mean           =   3.5901107310832E+00
(PID.TID 0000.0001) %MON dynstat_theta_sd             =   4.4366424914069E+00
(PID.TID 0000.0001) %MON dynstat_theta_del2           =   9.0400361309354E-05
(PID.TID 0000.0001) %MON dynstat_salt_max             =   4.0711544253576E+01
(PID.TID 0000.0001) %MON dynstat_salt_min             =   5.2515223975525E+00
(PID.TID 0000.0001) %MON dynstat_salt_mean            =   3.4725561255552E+01
(PID.TID 0000.0001) %MON dynstat_salt_sd              =   3.7710933496471E-01
(PID.TID 0000.0001) %MON dynstat_salt_del2            =   3.5073019653897E-05
(PID.TID 0000.0001) %MON dynstat_sst_max              =   3.1736876904485E+01
(PID.TID 0000.0001) %MON dynstat_sst_min              =  -1.8097622878434E+00
(PID.TID 0000.0001) %MON dynstat_sst_mean             =   1.8446148299254E+01
(PID.TID 0000.0001) %MON dynstat_sst_sd               =   1.0285184359814E+01
(PID.TID 0000.0001) %MON dynstat_sst_del2             =   7.9225599535046E-04
(PID.TID 0000.0001) %MON dynstat_sss_max              =   3.9098166059147E+01
(PID.TID 0000.0001) %MON dynstat_sss_min              =   5.2515223975525E+00
(PID.TID 0000.0001) %MON dynstat_sss_mean             =   3.4701013203057E+01
(PID.TID 0000.0001) %MON dynstat_sss_sd               =   1.1819754987468E+00
(PID.TID 0000.0001) %MON dynstat_sss_del2             =   1.0617989663759E-03
(PID.TID 0000.0001) %MON forcing_qnet_max             =   6.3789239501953E+02
(PID.TID 0000.0001) %MON forcing_qnet_min             =  -9.9705665418640E+02
(PID.TID 0000.0001) %MON forcing_qnet_mean            =   1.2921399951355E+01
(PID.TID 0000.0001) %MON forcing_qnet_sd              =   2.1401726721671E+02
(PID.TID 0000.0001) %MON forcing_qnet_del2            =   3.0253346062883E-01
(PID.TID 0000.0001) %MON forcing_qsw_max              =   0.0000000000000E+00
(PID.TID 0000.0001) %MON forcing_qsw_min              =  -1.0899520225830E+02
(PID.TID 0000.0001) %MON forcing_qsw_mean             =  -1.7108217539011E+01
(PID.TID 0000.0001) %MON forcing_qsw_sd               =   2.9218870331462E+01
(PID.TID 0000.0001) %MON forcing_qsw_del2             =   2.0899980095662E-02
(PID.TID 0000.0001) %MON forcing_empmr_max            =   7.4910483090207E-04
(PID.TID 0000.0001) %MON forcing_empmr_min            =  -7.1774899959564E-02
(PID.TID 0000.0001) %MON forcing_empmr_mean           =  -5.9316085958182E-06
(PID.TID 0000.0001) %MON forcing_empmr_sd             =   2.9855951319706E-04
(PID.TID 0000.0001) %MON forcing_empmr_del2           =   3.0577168276114E-06
(PID.TID 0000.0001) %MON forcing_fu_max               =   9.7580674290657E-01
(PID.TID 0000.0001) %MON forcing_fu_min               =  -1.1522785425186E+00
(PID.TID 0000.0001) %MON forcing_fu_mean              =   1.3336935472973E-03
(PID.TID 0000.0001) %MON forcing_fu_sd                =   1.0487734407044E-01
(PID.TID 0000.0001) %MON forcing_fu_del2              =   1.4662583067656E-04
(PID.TID 0000.0001) %MON forcing_fv_max               =   7.7882337570190E-01
(PID.TID 0000.0001) %MON forcing_fv_min               =  -7.4311020970345E-01
(PID.TID 0000.0001) %MON forcing_fv_mean              =  -9.9752565656507E-03
(PID.TID 0000.0001) %MON forcing_fv_sd                =   1.0743868519410E-01
(PID.TID 0000.0001) %MON forcing_fv_del2              =   1.3628188655301E-04
(PID.TID 0000.0001) %MON trAdv_CFL_u_max              =   1.1214256466100E-02
(PID.TID 0000.0001) %MON trAdv_CFL_v_max              =   1.2753090293804E-02
(PID.TID 0000.0001) %MON trAdv_CFL_w_max              =   2.0780936567715E-02
(PID.TID 0000.0001) %MON advcfl_uvel_max              =   9.8167919078276E-03
(PID.TID 0000.0001) %MON advcfl_vvel_max              =   1.3391674557788E-02
(PID.TID 0000.0001) %MON advcfl_wvel_max              =   2.1358262328921E-02
(PID.TID 0000.0001) %MON advcfl_W_hf_max              =   2.2400041451595E-02
(PID.TID 0000.0001) %MON pe_b_mean                    =   5.0928700601118E-04
(PID.TID 0000.0001) %MON ke_max                       =   4.8819663435954E-01
(PID.TID 0000.0001) %MON ke_mean                      =   3.3474035374172E-04
(PID.TID 0000.0001) %MON ke_vol                       =   1.3349982983056E+18
(PID.TID 0000.0001) %MON vort_r_min                   =  -1.9210183634827E-05
(PID.TID 0000.0001) %MON vort_r_max                   =   2.1805170900341E-05
(PID.TID 0000.0001) %MON vort_a_mean                  =  -1.9727864647440E-05
(PID.TID 0000.0001) %MON vort_a_sd                    =   7.4542963414730E-05
(PID.TID 0000.0001) %MON vort_p_mean                  =  -2.1760526598015E-05
(PID.TID 0000.0001) %MON vort_p_sd                    =   9.7246259187302E-05
(PID.TID 0000.0001) %MON surfExpan_theta_mean         =  -1.9202292810850E-08
(PID.TID 0000.0001) %MON surfExpan_salt_mean          =   6.7008566618492E-08
(PID.TID 0000.0001) // =======================================================
(PID.TID 0000.0001) // End MONITOR dynamic field statistics
(PID.TID 0000.0001) // =======================================================
(PID.TID 0000.0001) // =======================================================
(PID.TID 0000.0001) // Begin MONITOR SEAICE statistics
(PID.TID 0000.0001) // =======================================================
(PID.TID 0000.0001) %MON seaice_tsnumber              =                  1032
(PID.TID 0000.0001) %MON seaice_time_sec              =   9.2880000000000E+05
(PID.TID 0000.0001) %MON seaice_uice_max              =   4.0000000000000E-01
(PID.TID 0000.0001) %MON seaice_uice_min              =  -4.0000000000000E-01
(PID.TID 0000.0001) %MON seaice_uice_mean             =  -8.3054598624025E-03
(PID.TID 0000.0001) %MON seaice_uice_sd               =   1.9802383574176E-01
(PID.TID 0000.0001) %MON seaice_uice_del2             =   2.2931571122150E-04
(PID.TID 0000.0001) %MON seaice_vice_max              =   4.0000000000000E-01
(PID.TID 0000.0001) %MON seaice_vice_min              =  -4.0000000000000E-01
(PID.TID 0000.0001) %MON seaice_vice_mean             =  -2.1960776359499E-02
(PID.TID 0000.0001) %MON seaice_vice_sd               =   2.1302038025672E-01
(PID.TID 0000.0001) %MON seaice_vice_del2             =   2.3932563818061E-04
(PID.TID 0000.0001) %MON seaice_area_max              =   9.9999999813735E-01
(PID.TID 0000.0001) %MON seaice_area_min              =   0.0000000000000E+00
(PID.TID 0000.0001) %MON seaice_area_mean             =   6.4906186732445E-02
(PID.TID 0000.0001) %MON seaice_area_sd               =   2.2817667890912E-01
(PID.TID 0000.0001) %MON seaice_area_del2             =   3.7734276905823E-04
(PID.TID 0000.0001) %MON seaice_heff_max              =   2.4913821311085E+01
(PID.TID 0000.0001) %MON seaice_heff_min              =   0.0000000000000E+00
(PID.TID 0000.0001) %MON seaice_heff_mean             =   2.1168139449612E-01
(PID.TID 0000.0001) %MON seaice_heff_sd               =   1.0657095268906E+00
(PID.TID 0000.0001) %MON seaice_heff_del2             =   3.8191391403352E-03
(PID.TID 0000.0001) %MON seaice_hsnow_max             =   8.2290776619921E+00
(PID.TID 0000.0001) %MON seaice_hsnow_min             =   0.0000000000000E+00
(PID.TID 0000.0001) %MON seaice_hsnow_mean            =   2.3855469184975E-02
(PID.TID 0000.0001) %MON seaice_hsnow_sd              =   1.5578295728381E-01
(PID.TID 0000.0001) %MON seaice_hsnow_del2            =   1.2353384255881E-03
(PID.TID 0000.0001) // =======================================================
(PID.TID 0000.0001) // End MONITOR SEAICE statistics
(PID.TID 0000.0001) // =======================================================
 Computing Diagnostic #     86  oceQnet      Counter:       4   Parms: SM      U1      
 Computing Diagnostic #     87  oceQsw       Counter:       4   Parms: SM      U1      
 Computing Diagnostic #     84  oceFWflx     Counter:       4   Parms: SM      U1      
 Computing Diagnostic #     85  oceSflux     Counter:       4   Parms: SM      U1      
 Computing Diagnostic #     80  oceTAUX      Counter:       4   Parms: UU      U1      
           Vector  Mate for  oceTAUX      Diagnostic #     81  oceTAUY  exists 
 Computing Diagnostic #     81  oceTAUY      Counter:       4   Parms: VV      U1      
           Vector  Mate for  oceTAUY      Diagnostic #     80  oceTAUX  exists 
 Computing Diagnostic #     26  THETA        Counter:       4   Parms: SMR     MR      
 Computing Diagnostic #     27  SALT         Counter:       4   Parms: SMR     MR      
 Computing Diagnostic #     30  UVEL         Counter:       4   Parms: UUR     MR      
           Vector  Mate for  UVEL         Diagnostic #     31  VVEL     exists 
 Computing Diagnostic #     31  VVEL         Counter:       4   Parms: VVR     MR      
           Vector  Mate for  VVEL         Diagnostic #     30  UVEL     exists 
 Computing Diagnostic #    214  SIarea       Counter:       4   Parms: SM      M1      
 Computing Diagnostic #    217  SIheff       Counter:       4   Parms: SM      M1      
 Computing Diagnostic #    219  SIhsnow      Counter:       4   Parms: SM      M1      
 Computing Diagnostic #     83  sIceLoad     Counter:       4   Parms: SM      U1      
 Computing Diagnostic #    223  SIuice       Counter:       4   Parms: UU      M1      
           Vector  Mate for  SIuice       Diagnostic #    224  SIvice   exists 
 Computing Diagnostic #    224  SIvice       Counter:       4   Parms: VV      M1      
           Vector  Mate for  SIvice       Diagnostic #    223  SIuice   exists 
 Computing Diagnostic #    225  SItaux       Counter:       4   Parms: UU      U1      
           Vector  Mate for  SItaux       Diagnostic #    226  SItauy   exists 
 Computing Diagnostic #    226  SItauy       Counter:       4   Parms: VV      U1      
           Vector  Mate for  SItauy       Diagnostic #    225  SItaux   exists 
 Computing Diagnostic #    285  SIareaN      Counter:       4   Parms: SM      MX      
 Computing Diagnostic #    284  SIheffN      Counter:       4   Parms: SM      MX      
 Computing Diagnostic #    286  SIhsnowN     Counter:       4   Parms: SM      MX      
 Compute Stats, Diag. #    214  SIarea    vol(   0 ): 3.580E+14  Parms: SM      M1      
 Compute Stats, Diag. #    217  SIheff    vol(   0 ): 3.580E+14  Parms: SM      M1      
 Compute Stats, Diag. #    219  SIhsnow   vol(   0 ): 3.580E+14  Parms: SM      M1      
 Compute Stats, Diag. #     83  sIceLoad  vol(   0 ): 3.580E+14  Parms: SM      U1      
 Compute Stats, Diag. #    223  SIuice    vol(   0 ): 3.513E+14  Parms: UU      M1      
 Compute Stats, Diag. #    224  SIvice    vol(   0 ): 3.508E+14  Parms: VV      M1      
 Compute Stats, Diag. #    225  SItaux    vol(   0 ): 3.513E+14  Parms: UU      U1      
 Compute Stats, Diag. #    226  SItauy    vol(   0 ): 3.508E+14  Parms: VV      U1      
 cg2d: Sum(rhs),rhsMax =  -3.75297146384732E+01  2.83257462486126E-01
 Compute Stats, Diag. #    214  SIarea    vol(   0 ): 3.580E+14  Parms: SM      M1      
 Compute Stats, Diag. #    217  SIheff    vol(   0 ): 3.580E+14  Parms: SM      M1      
 Compute Stats, Diag. #    219  SIhsnow   vol(   0 ): 3.580E+14  Parms: SM      M1      
 Compute Stats, Diag. #     83  sIceLoad  vol(   0 ): 3.580E+14  Parms: SM      U1      
 Compute Stats, Diag. #    223  SIuice    vol(   0 ): 3.513E+14  Parms: UU      M1      
 Compute Stats, Diag. #    224  SIvice    vol(   0 ): 3.508E+14  Parms: VV      M1      
 Compute Stats, Diag. #    225  SItaux    vol(   0 ): 3.513E+14  Parms: UU      U1      
 Compute Stats, Diag. #    226  SItauy    vol(   0 ): 3.508E+14  Parms: VV      U1      
 cg2d: Sum(rhs),rhsMax =  -3.76910825138167E+01  2.83276418932310E-01
 Compute Stats, Diag. #    214  SIarea    vol(   0 ): 3.580E+14  Parms: SM      M1      
 Compute Stats, Diag. #    217  SIheff    vol(   0 ): 3.580E+14  Parms: SM      M1      
 Compute Stats, Diag. #    219  SIhsnow   vol(   0 ): 3.580E+14  Parms: SM      M1      
 Compute Stats, Diag. #     83  sIceLoad  vol(   0 ): 3.580E+14  Parms: SM      U1      
 Compute Stats, Diag. #    223  SIuice    vol(   0 ): 3.513E+14  Parms: UU      M1      
 Compute Stats, Diag. #    224  SIvice    vol(   0 ): 3.508E+14  Parms: VV      M1      
 Compute Stats, Diag. #    225  SItaux    vol(   0 ): 3.513E+14  Parms: UU      U1      
 Compute Stats, Diag. #    226  SItauy    vol(   0 ): 3.508E+14  Parms: VV      U1      
 cg2d: Sum(rhs),rhsMax =  -3.78575738761613E+01  2.83301436997221E-01
 Compute Stats, Diag. #    214  SIarea    vol(   0 ): 3.580E+14  Parms: SM      M1      
 Compute Stats, Diag. #    217  SIheff    vol(   0 ): 3.580E+14  Parms: SM      M1      
 Compute Stats, Diag. #    219  SIhsnow   vol(   0 ): 3.580E+14  Parms: SM      M1      
 Compute Stats, Diag. #     83  sIceLoad  vol(   0 ): 3.580E+14  Parms: SM      U1      
 Compute Stats, Diag. #    223  SIuice    vol(   0 ): 3.513E+14  Parms: UU      M1      
 Compute Stats, Diag. #    224  SIvice    vol(   0 ): 3.508E+14  Parms: VV      M1      
 Compute Stats, Diag. #    225  SItaux    vol(   0 ): 3.513E+14  Parms: UU      U1      
 Compute Stats, Diag. #    226  SItauy    vol(   0 ): 3.508E+14  Parms: VV      U1      
 cg2d: Sum(rhs),rhsMax =  -3.80224331904756E+01  2.83330083271489E-01
 Computing Diagnostic #     86  oceQnet      Counter:       4   Parms: SM      U1      
 Computing Diagnostic #     87  oceQsw       Counter:       4   Parms: SM      U1      
 Computing Diagnostic #     84  oceFWflx     Counter:       4   Parms: SM      U1      
 Computing Diagnostic #     85  oceSflux     Counter:       4   Parms: SM      U1      
 Computing Diagnostic #     80  oceTAUX      Counter:       4   Parms: UU      U1      
           Vector  Mate for  oceTAUX      Diagnostic #     81  oceTAUY  exists 
 Computing Diagnostic #     81  oceTAUY      Counter:       4   Parms: VV      U1      
           Vector  Mate for  oceTAUY      Diagnostic #     80  oceTAUX  exists 
 Computing Diagnostic #     26  THETA        Counter:       4   Parms: SMR     MR      
 Computing Diagnostic #     27  SALT         Counter:       4   Parms: SMR     MR      
 Computing Diagnostic #     30  UVEL         Counter:       4   Parms: UUR     MR      
           Vector  Mate for  UVEL         Diagnostic #     31  VVEL     exists 
 Computing Diagnostic #     31  VVEL         Counter:       4   Parms: VVR     MR      
           Vector  Mate for  VVEL         Diagnostic #     30  UVEL     exists 
 Computing Diagnostic #    214  SIarea       Counter:       4   Parms: SM      M1      
 Computing Diagnostic #    217  SIheff       Counter:       4   Parms: SM      M1      
 Computing Diagnostic #    219  SIhsnow      Counter:       4   Parms: SM      M1      
 Computing Diagnostic #     83  sIceLoad     Counter:       4   Parms: SM      U1      
 Computing Diagnostic #    223  SIuice       Counter:       4   Parms: UU      M1      
           Vector  Mate for  SIuice       Diagnostic #    224  SIvice   exists 
 Computing Diagnostic #    224  SIvice       Counter:       4   Parms: VV      M1      
           Vector  Mate for  SIvice       Diagnostic #    223  SIuice   exists 
 Computing Diagnostic #    225  SItaux       Counter:       4   Parms: UU      U1      
           Vector  Mate for  SItaux       Diagnostic #    226  SItauy   exists 
 Computing Diagnostic #    226  SItauy       Counter:       4   Parms: VV      U1      
           Vector  Mate for  SItauy       Diagnostic #    225  SItaux   exists 
 Computing Diagnostic #    285  SIareaN      Counter:       4   Parms: SM      MX      
 Computing Diagnostic #    284  SIheffN      Counter:       4   Parms: SM      MX      
 Computing Diagnostic #    286  SIhsnowN     Counter:       4   Parms: SM      MX      
 Compute Stats, Diag. #    214  SIarea    vol(   0 ): 3.580E+14  Parms: SM      M1      
 Compute Stats, Diag. #    217  SIheff    vol(   0 ): 3.580E+14  Parms: SM      M1      
 Compute Stats, Diag. #    219  SIhsnow   vol(   0 ): 3.580E+14  Parms: SM      M1      
 Compute Stats, Diag. #     83  sIceLoad  vol(   0 ): 3.580E+14  Parms: SM      U1      
 Compute Stats, Diag. #    223  SIuice    vol(   0 ): 3.513E+14  Parms: UU      M1      
 Compute Stats, Diag. #    224  SIvice    vol(   0 ): 3.508E+14  Parms: VV      M1      
 Compute Stats, Diag. #    225  SItaux    vol(   0 ): 3.513E+14  Parms: UU      U1      
 Compute Stats, Diag. #    226  SItauy    vol(   0 ): 3.508E+14  Parms: VV      U1      
 cg2d: Sum(rhs),rhsMax =  -3.81801514119775E+01  2.83362773753028E-01
 Compute Stats, Diag. #    214  SIarea    vol(   0 ): 3.580E+14  Parms: SM      M1      
 Compute Stats, Diag. #    217  SIheff    vol(   0 ): 3.580E+14  Parms: SM      M1      
 Compute Stats, Diag. #    219  SIhsnow   vol(   0 ): 3.580E+14  Parms: SM      M1      
 Compute Stats, Diag. #     83  sIceLoad  vol(   0 ): 3.580E+14  Parms: SM      U1      
 Compute Stats, Diag. #    223  SIuice    vol(   0 ): 3.513E+14  Parms: UU      M1      
 Compute Stats, Diag. #    224  SIvice    vol(   0 ): 3.508E+14  Parms: VV      M1      
 Compute Stats, Diag. #    225  SItaux    vol(   0 ): 3.513E+14  Parms: UU      U1      
 Compute Stats, Diag. #    226  SItauy    vol(   0 ): 3.508E+14  Parms: VV      U1      
 cg2d: Sum(rhs),rhsMax =  -3.83410516585177E+01  2.83400449979992E-01
 Compute Stats, Diag. #    214  SIarea    vol(   0 ): 3.580E+14  Parms: SM      M1      
 Compute Stats, Diag. #    217  SIheff    vol(   0 ): 3.580E+14  Parms: SM      M1      
 Compute Stats, Diag. #    219  SIhsnow   vol(   0 ): 3.580E+14  Parms: SM      M1      
 Compute Stats, Diag. #     83  sIceLoad  vol(   0 ): 3.580E+14  Parms: SM      U1      
 Compute Stats, Diag. #    223  SIuice    vol(   0 ): 3.513E+14  Parms: UU      M1      
 Compute Stats, Diag. #    224  SIvice    vol(   0 ): 3.508E+14  Parms: VV      M1      
 Compute Stats, Diag. #    225  SItaux    vol(   0 ): 3.513E+14  Parms: UU      U1      
 Compute Stats, Diag. #    226  SItauy    vol(   0 ): 3.508E+14  Parms: VV      U1      
 cg2d: Sum(rhs),rhsMax =  -3.85008193424819E+01  2.83441901589427E-01
 Compute Stats, Diag. #    214  SIarea    vol(   0 ): 3.580E+14  Parms: SM      M1      
 Compute Stats, Diag. #    217  SIheff    vol(   0 ): 3.580E+14  Parms: SM      M1      
 Compute Stats, Diag. #    219  SIhsnow   vol(   0 ): 3.580E+14  Parms: SM      M1      
 Compute Stats, Diag. #     83  sIceLoad  vol(   0 ): 3.580E+14  Parms: SM      U1      
 Compute Stats, Diag. #    223  SIuice    vol(   0 ): 3.513E+14  Parms: UU      M1      
 Compute Stats, Diag. #    224  SIvice    vol(   0 ): 3.508E+14  Parms: VV      M1      
 Compute Stats, Diag. #    225  SItaux    vol(   0 ): 3.513E+14  Parms: UU      U1      
 Compute Stats, Diag. #    226  SItauy    vol(   0 ): 3.508E+14  Parms: VV      U1      
 cg2d: Sum(rhs),rhsMax =  -3.86678216104215E+01  2.83489135976115E-01
(PID.TID 0000.0001)      cg2d_init_res =   4.35930543199836E-02
(PID.TID 0000.0001)      cg2d_iters(min,last) =      -1      24
(PID.TID 0000.0001)      cg2d_last_res =   2.35584606279733E-05
(PID.TID 0000.0001) // =======================================================
(PID.TID 0000.0001) // Begin MONITOR dynamic field statistics
(PID.TID 0000.0001) // =======================================================
(PID.TID 0000.0001) %MON time_tsnumber                =                  1040
(PID.TID 0000.0001) %MON time_secondsf                =   9.3600000000000E+05
(PID.TID 0000.0001) %MON dynstat_eta_max              =   1.0089215595757E+00
(PID.TID 0000.0001) %MON dynstat_eta_min              =  -1.8007186909923E+00
(PID.TID 0000.0001) %MON dynstat_eta_mean             =   1.2231866943657E-03
(PID.TID 0000.0001) %MON dynstat_eta_sd               =   6.2209808991996E-01
(PID.TID 0000.0001) %MON dynstat_eta_del2             =   5.1213998100939E-05
(PID.TID 0000.0001) %MON dynstat_uvel_max             =   6.8587720338712E-01
(PID.TID 0000.0001) %MON dynstat_uvel_min             =  -8.8145045695208E-01
(PID.TID 0000.0001) %MON dynstat_uvel_mean            =   1.3328182868947E-03
(PID.TID 0000.0001) %MON dynstat_uvel_sd              =   1.7871903753189E-02
(PID.TID 0000.0001) %MON dynstat_uvel_del2            =   7.0362740331961E-06
(PID.TID 0000.0001) %MON dynstat_vvel_max             =   6.5540380663108E-01
(PID.TID 0000.0001) %MON dynstat_vvel_min             =  -9.8088206042303E-01
(PID.TID 0000.0001) %MON dynstat_vvel_mean            =   1.0059218200405E-03
(PID.TID 0000.0001) %MON dynstat_vvel_sd              =   1.9297284454393E-02
(PID.TID 0000.0001) %MON dynstat_vvel_del2            =   7.1830359545665E-06
(PID.TID 0000.0001) %MON dynstat_wvel_max             =   3.0337315943737E-04
(PID.TID 0000.0001) %MON dynstat_wvel_min             =  -7.6915017121571E-04
(PID.TID 0000.0001) %MON dynstat_wvel_mean            =  -5.5788505301757E-09
(PID.TID 0000.0001) %MON dynstat_wvel_sd              =   1.5929270804829E-05
(PID.TID 0000.0001) %MON dynstat_wvel_del2            =   1.3627970697363E-08
(PID.TID 0000.0001) %MON dynstat_theta_max            =   3.1718615831673E+01
(PID.TID 0000.0001) %MON dynstat_theta_min            =  -2.0396523686036E+00
(PID.TID 0000.0001) %MON dynstat_theta_mean           =   3.5901080400534E+00
(PID.TID 0000.0001) %MON dynstat_theta_sd             =   4.4366434041908E+00
(PID.TID 0000.0001) %MON dynstat_theta_del2           =   9.0345598129166E-05
(PID.TID 0000.0001) %MON dynstat_salt_max             =   4.0711544640790E+01
(PID.TID 0000.0001) %MON dynstat_salt_min             =   5.1255632356796E+00
(PID.TID 0000.0001) %MON dynstat_salt_mean            =   3.4725560893523E+01
(PID.TID 0000.0001) %MON dynstat_salt_sd              =   3.7711123384042E-01
(PID.TID 0000.0001) %MON dynstat_salt_del2            =   3.5075832690096E-05
(PID.TID 0000.0001) %MON dynstat_sst_max              =   3.1718601839762E+01
(PID.TID 0000.0001) %MON dynstat_sst_min              =  -1.8096168546948E+00
(PID.TID 0000.0001) %MON dynstat_sst_mean             =   1.8447690304223E+01
(PID.TID 0000.0001) %MON dynstat_sst_sd               =   1.0286441300692E+01
(PID.TID 0000.0001) %MON dynstat_sst_del2             =   7.9099472750330E-04
(PID.TID 0000.0001) %MON dynstat_sss_max              =   3.9098108256950E+01
(PID.TID 0000.0001) %MON dynstat_sss_min              =   5.1255632356796E+00
(PID.TID 0000.0001) %MON dynstat_sss_mean             =   3.4701032994078E+01
(PID.TID 0000.0001) %MON dynstat_sss_sd               =   1.1822960610021E+00
(PID.TID 0000.0001) %MON dynstat_sss_del2             =   1.0617792317934E-03
(PID.TID 0000.0001) %MON forcing_qnet_max             =   2.2599218750000E+03
(PID.TID 0000.0001) %MON forcing_qnet_min             =  -8.4635626409578E+02
(PID.TID 0000.0001) %MON forcing_qnet_mean            =   4.9881510986394E-01
(PID.TID 0000.0001) %MON forcing_qnet_sd              =   2.0183257394672E+02
(PID.TID 0000.0001) %MON forcing_qnet_del2            =   3.2149059184778E-01
(PID.TID 0000.0001) %MON forcing_qsw_max              =   0.0000000000000E+00
(PID.TID 0000.0001) %MON forcing_qsw_min              =  -1.0887866151761E+02
(PID.TID 0000.0001) %MON forcing_qsw_mean             =  -1.8600442980630E+01
(PID.TID 0000.0001) %MON forcing_qsw_sd               =   2.7931859026158E+01
(PID.TID 0000.0001) %MON forcing_qsw_del2             =   2.0883411990837E-02
(PID.TID 0000.0001) %MON forcing_empmr_max            =   8.1000436330214E-04
(PID.TID 0000.0001) %MON forcing_empmr_min            =  -8.2086987793446E-02
(PID.TID 0000.0001) %MON forcing_empmr_mean           =  -6.0400186030961E-06
(PID.TID 0000.0001) %MON forcing_empmr_sd             =   3.4030445286768E-04
(PID.TID 0000.0001) %MON forcing_empmr_del2           =   3.4890926763149E-06
(PID.TID 0000.0001) %MON forcing_fu_max               =   9.4534903764725E-01
(PID.TID 0000.0001) %MON forcing_fu_min               =  -1.1172231435776E+00
(PID.TID 0000.0001) %MON forcing_fu_mean              =   1.8609515303884E-03
(PID.TID 0000.0001) %MON forcing_fu_sd                =   1.0506457276021E-01
(PID.TID 0000.0001) %MON forcing_fu_del2              =   1.4498305685702E-04
(PID.TID 0000.0001) %MON forcing_fv_max               =   7.3428690433502E-01
(PID.TID 0000.0001) %MON forcing_fv_min               =  -7.6821595430374E-01
(PID.TID 0000.0001) %MON forcing_fv_mean              =  -1.0249013419329E-02
(PID.TID 0000.0001) %MON forcing_fv_sd                =   1.0720055572365E-01
(PID.TID 0000.0001) %MON forcing_fv_del2              =   1.3674803172089E-04
(PID.TID 0000.0001) %MON trAdv_CFL_u_max              =   1.1219129682577E-02
(PID.TID 0000.0001) %MON trAdv_CFL_v_max              =   1.3191151749955E-02
(PID.TID 0000.0001) %MON trAdv_CFL_w_max              =   2.1123469847254E-02
(PID.TID 0000.0001) %MON advcfl_uvel_max              =   9.8322428398419E-03
(PID.TID 0000.0001) %MON advcfl_vvel_max              =   1.3988833894033E-02
(PID.TID 0000.0001) %MON advcfl_wvel_max              =   2.1724091904156E-02
(PID.TID 0000.0001) %MON advcfl_W_hf_max              =   2.2781751595582E-02
(PID.TID 0000.0001) %MON pe_b_mean                    =   5.0907005473470E-04
(PID.TID 0000.0001) %MON ke_max                       =   4.9960240300227E-01
(PID.TID 0000.0001) %MON ke_mean                      =   3.3492296178672E-04
(PID.TID 0000.0001) %MON ke_vol                       =   1.3349983129658E+18
(PID.TID 0000.0001) %MON vort_r_min                   =  -1.9620680432908E-05
(PID.TID 0000.0001) %MON vort_r_max                   =   2.2397225516681E-05
(PID.TID 0000.0001) %MON vort_a_mean                  =  -1.9727864647440E-05
(PID.TID 0000.0001) %MON vort_a_sd                    =   7.4542965746985E-05
(PID.TID 0000.0001) %MON vort_p_mean                  =  -2.1760526330732E-05
(PID.TID 0000.0001) %MON vort_p_sd                    =   9.7246299545571E-05
(PID.TID 0000.0001) %MON surfExpan_theta_mean         =   2.9998394185777E-08
(PID.TID 0000.0001) %MON surfExpan_salt_mean          =   6.8501079947731E-08
(PID.TID 0000.0001) // =======================================================
(PID.TID 0000.0001) // End MONITOR dynamic field statistics
(PID.TID 0000.0001) // =======================================================
(PID.TID 0000.0001) // =======================================================
(PID.TID 0000.0001) // Begin MONITOR SEAICE statistics
(PID.TID 0000.0001) // =======================================================
(PID.TID 0000.0001) %MON seaice_tsnumber              =                  1040
(PID.TID 0000.0001) %MON seaice_time_sec              =   9.3600000000000E+05
(PID.TID 0000.0001) %MON seaice_uice_max              =   4.0000000000000E-01
(PID.TID 0000.0001) %MON seaice_uice_min              =  -4.0000000000000E-01
(PID.TID 0000.0001) %MON seaice_uice_mean             =  -8.3054598624025E-03
(PID.TID 0000.0001) %MON seaice_uice_sd               =   1.9802383574176E-01
(PID.TID 0000.0001) %MON seaice_uice_del2             =   2.2931571122150E-04
(PID.TID 0000.0001) %MON seaice_vice_max              =   4.0000000000000E-01
(PID.TID 0000.0001) %MON seaice_vice_min              =  -4.0000000000000E-01
(PID.TID 0000.0001) %MON seaice_vice_mean             =  -2.1960776359499E-02
(PID.TID 0000.0001) %MON seaice_vice_sd               =   2.1302038025672E-01
(PID.TID 0000.0001) %MON seaice_vice_del2             =   2.3932563818061E-04
(PID.TID 0000.0001) %MON seaice_area_max              =   9.9999999813735E-01
(PID.TID 0000.0001) %MON seaice_area_min              =   0.0000000000000E+00
(PID.TID 0000.0001) %MON seaice_area_mean             =   6.4880187817993E-02
(PID.TID 0000.0001) %MON seaice_area_sd               =   2.2813248599930E-01
(PID.TID 0000.0001) %MON seaice_area_del2             =   3.7706980423740E-04
(PID.TID 0000.0001) %MON seaice_heff_max              =   2.4911511114216E+01
(PID.TID 0000.0001) %MON seaice_heff_min              =   0.0000000000000E+00
(PID.TID 0000.0001) %MON seaice_heff_mean             =   2.1165804395226E-01
(PID.TID 0000.0001) %MON seaice_heff_sd               =   1.0656889666504E+00
(PID.TID 0000.0001) %MON seaice_heff_del2             =   3.8185323764597E-03
(PID.TID 0000.0001) %MON seaice_hsnow_max             =   8.2283160941734E+00
(PID.TID 0000.0001) %MON seaice_hsnow_min             =   0.0000000000000E+00
(PID.TID 0000.0001) %MON seaice_hsnow_mean            =   2.3849339502073E-02
(PID.TID 0000.0001) %MON seaice_hsnow_sd              =   1.5576779448760E-01
(PID.TID 0000.0001) %MON seaice_hsnow_del2            =   1.2351970483237E-03
(PID.TID 0000.0001) // =======================================================
(PID.TID 0000.0001) // End MONITOR SEAICE statistics
(PID.TID 0000.0001) // =======================================================
 Computing Diagnostic #     86  oceQnet      Counter:       4   Parms: SM      U1      
 Computing Diagnostic #     87  oceQsw       Counter:       4   Parms: SM      U1      
 Computing Diagnostic #     84  oceFWflx     Counter:       4   Parms: SM      U1      
 Computing Diagnostic #     85  oceSflux     Counter:       4   Parms: SM      U1      
 Computing Diagnostic #     80  oceTAUX      Counter:       4   Parms: UU      U1      
           Vector  Mate for  oceTAUX      Diagnostic #     81  oceTAUY  exists 
 Computing Diagnostic #     81  oceTAUY      Counter:       4   Parms: VV      U1      
           Vector  Mate for  oceTAUY      Diagnostic #     80  oceTAUX  exists 
 Computing Diagnostic #     26  THETA        Counter:       4   Parms: SMR     MR      
 Computing Diagnostic #     27  SALT         Counter:       4   Parms: SMR     MR      
 Computing Diagnostic #     30  UVEL         Counter:       4   Parms: UUR     MR      
           Vector  Mate for  UVEL         Diagnostic #     31  VVEL     exists 
 Computing Diagnostic #     31  VVEL         Counter:       4   Parms: VVR     MR      
           Vector  Mate for  VVEL         Diagnostic #     30  UVEL     exists 
 Computing Diagnostic #    214  SIarea       Counter:       4   Parms: SM      M1      
 Computing Diagnostic #    217  SIheff       Counter:       4   Parms: SM      M1      
 Computing Diagnostic #    219  SIhsnow      Counter:       4   Parms: SM      M1      
 Computing Diagnostic #     83  sIceLoad     Counter:       4   Parms: SM      U1      
 Computing Diagnostic #    223  SIuice       Counter:       4   Parms: UU      M1      
           Vector  Mate for  SIuice       Diagnostic #    224  SIvice   exists 
 Computing Diagnostic #    224  SIvice       Counter:       4   Parms: VV      M1      
           Vector  Mate for  SIvice       Diagnostic #    223  SIuice   exists 
 Computing Diagnostic #    225  SItaux       Counter:       4   Parms: UU      U1      
           Vector  Mate for  SItaux       Diagnostic #    226  SItauy   exists 
 Computing Diagnostic #    226  SItauy       Counter:       4   Parms: VV      U1      
           Vector  Mate for  SItauy       Diagnostic #    225  SItaux   exists 
 Computing Diagnostic #    285  SIareaN      Counter:       4   Parms: SM      MX      
 Computing Diagnostic #    284  SIheffN      Counter:       4   Parms: SM      MX      
 Computing Diagnostic #    286  SIhsnowN     Counter:       4   Parms: SM      MX      
 Compute Stats, Diag. #    214  SIarea    vol(   0 ): 3.580E+14  Parms: SM      M1      
 Compute Stats, Diag. #    217  SIheff    vol(   0 ): 3.580E+14  Parms: SM      M1      
 Compute Stats, Diag. #    219  SIhsnow   vol(   0 ): 3.580E+14  Parms: SM      M1      
 Compute Stats, Diag. #     83  sIceLoad  vol(   0 ): 3.580E+14  Parms: SM      U1      
 Compute Stats, Diag. #    223  SIuice    vol(   0 ): 3.513E+14  Parms: UU      M1      
 Compute Stats, Diag. #    224  SIvice    vol(   0 ): 3.508E+14  Parms: VV      M1      
 Compute Stats, Diag. #    225  SItaux    vol(   0 ): 3.513E+14  Parms: UU      U1      
 Compute Stats, Diag. #    226  SItauy    vol(   0 ): 3.508E+14  Parms: VV      U1      
 cg2d: Sum(rhs),rhsMax =  -3.88292713179739E+01  2.83540137053294E-01
 Compute Stats, Diag. #    214  SIarea    vol(   0 ): 3.580E+14  Parms: SM      M1      
 Compute Stats, Diag. #    217  SIheff    vol(   0 ): 3.580E+14  Parms: SM      M1      
 Compute Stats, Diag. #    219  SIhsnow   vol(   0 ): 3.580E+14  Parms: SM      M1      
 Compute Stats, Diag. #     83  sIceLoad  vol(   0 ): 3.580E+14  Parms: SM      U1      
 Compute Stats, Diag. #    223  SIuice    vol(   0 ): 3.513E+14  Parms: UU      M1      
 Compute Stats, Diag. #    224  SIvice    vol(   0 ): 3.508E+14  Parms: VV      M1      
 Compute Stats, Diag. #    225  SItaux    vol(   0 ): 3.513E+14  Parms: UU      U1      
 Compute Stats, Diag. #    226  SItauy    vol(   0 ): 3.508E+14  Parms: VV      U1      
 cg2d: Sum(rhs),rhsMax =  -3.89992453666333E+01  2.83595271310723E-01
 Compute Stats, Diag. #    214  SIarea    vol(   0 ): 3.580E+14  Parms: SM      M1      
 Compute Stats, Diag. #    217  SIheff    vol(   0 ): 3.580E+14  Parms: SM      M1      
 Compute Stats, Diag. #    219  SIhsnow   vol(   0 ): 3.580E+14  Parms: SM      M1      
 Compute Stats, Diag. #     83  sIceLoad  vol(   0 ): 3.580E+14  Parms: SM      U1      
 Compute Stats, Diag. #    223  SIuice    vol(   0 ): 3.513E+14  Parms: UU      M1      
 Compute Stats, Diag. #    224  SIvice    vol(   0 ): 3.508E+14  Parms: VV      M1      
 Compute Stats, Diag. #    225  SItaux    vol(   0 ): 3.513E+14  Parms: UU      U1      
 Compute Stats, Diag. #    226  SItauy    vol(   0 ): 3.508E+14  Parms: VV      U1      
 cg2d: Sum(rhs),rhsMax =  -3.91703207426062E+01  2.83654460020654E-01
 Compute Stats, Diag. #    214  SIarea    vol(   0 ): 3.580E+14  Parms: SM      M1      
 Compute Stats, Diag. #    217  SIheff    vol(   0 ): 3.580E+14  Parms: SM      M1      
 Compute Stats, Diag. #    219  SIhsnow   vol(   0 ): 3.580E+14  Parms: SM      M1      
 Compute Stats, Diag. #     83  sIceLoad  vol(   0 ): 3.580E+14  Parms: SM      U1      
 Compute Stats, Diag. #    223  SIuice    vol(   0 ): 3.513E+14  Parms: UU      M1      
 Compute Stats, Diag. #    224  SIvice    vol(   0 ): 3.508E+14  Parms: VV      M1      
 Compute Stats, Diag. #    225  SItaux    vol(   0 ): 3.513E+14  Parms: UU      U1      
 Compute Stats, Diag. #    226  SItauy    vol(   0 ): 3.508E+14  Parms: VV      U1      
 cg2d: Sum(rhs),rhsMax =  -3.93458526040731E+01  2.83716740599253E-01
 Computing Diagnostic #     86  oceQnet      Counter:       4   Parms: SM      U1      
 Computing Diagnostic #     87  oceQsw       Counter:       4   Parms: SM      U1      
 Computing Diagnostic #     84  oceFWflx     Counter:       4   Parms: SM      U1      
 Computing Diagnostic #     85  oceSflux     Counter:       4   Parms: SM      U1      
 Computing Diagnostic #     80  oceTAUX      Counter:       4   Parms: UU      U1      
           Vector  Mate for  oceTAUX      Diagnostic #     81  oceTAUY  exists 
 Computing Diagnostic #     81  oceTAUY      Counter:       4   Parms: VV      U1      
           Vector  Mate for  oceTAUY      Diagnostic #     80  oceTAUX  exists 
 Computing Diagnostic #     26  THETA        Counter:       4   Parms: SMR     MR      
 Computing Diagnostic #     27  SALT         Counter:       4   Parms: SMR     MR      
 Computing Diagnostic #     30  UVEL         Counter:       4   Parms: UUR     MR      
           Vector  Mate for  UVEL         Diagnostic #     31  VVEL     exists 
 Computing Diagnostic #     31  VVEL         Counter:       4   Parms: VVR     MR      
           Vector  Mate for  VVEL         Diagnostic #     30  UVEL     exists 
 Computing Diagnostic #    214  SIarea       Counter:       4   Parms: SM      M1      
 Computing Diagnostic #    217  SIheff       Counter:       4   Parms: SM      M1      
 Computing Diagnostic #    219  SIhsnow      Counter:       4   Parms: SM      M1      
 Computing Diagnostic #     83  sIceLoad     Counter:       4   Parms: SM      U1      
 Computing Diagnostic #    223  SIuice       Counter:       4   Parms: UU      M1      
           Vector  Mate for  SIuice       Diagnostic #    224  SIvice   exists 
 Computing Diagnostic #    224  SIvice       Counter:       4   Parms: VV      M1      
           Vector  Mate for  SIvice       Diagnostic #    223  SIuice   exists 
 Computing Diagnostic #    225  SItaux       Counter:       4   Parms: UU      U1      
           Vector  Mate for  SItaux       Diagnostic #    226  SItauy   exists 
 Computing Diagnostic #    226  SItauy       Counter:       4   Parms: VV      U1      
           Vector  Mate for  SItauy       Diagnostic #    225  SItaux   exists 
 Computing Diagnostic #    285  SIareaN      Counter:       4   Parms: SM      MX      
 Computing Diagnostic #    284  SIheffN      Counter:       4   Parms: SM      MX      
 Computing Diagnostic #    286  SIhsnowN     Counter:       4   Parms: SM      MX      
 Compute Stats, Diag. #    214  SIarea    vol(   0 ): 3.580E+14  Parms: SM      M1      
 Compute Stats, Diag. #    217  SIheff    vol(   0 ): 3.580E+14  Parms: SM      M1      
 Compute Stats, Diag. #    219  SIhsnow   vol(   0 ): 3.580E+14  Parms: SM      M1      
 Compute Stats, Diag. #     83  sIceLoad  vol(   0 ): 3.580E+14  Parms: SM      U1      
 Compute Stats, Diag. #    223  SIuice    vol(   0 ): 3.513E+14  Parms: UU      M1      
 Compute Stats, Diag. #    224  SIvice    vol(   0 ): 3.508E+14  Parms: VV      M1      
 Compute Stats, Diag. #    225  SItaux    vol(   0 ): 3.513E+14  Parms: UU      U1      
 Compute Stats, Diag. #    226  SItauy    vol(   0 ): 3.508E+14  Parms: VV      U1      
 cg2d: Sum(rhs),rhsMax =  -3.95161161469214E+01  2.83779275525689E-01
 Compute Stats, Diag. #    214  SIarea    vol(   0 ): 3.580E+14  Parms: SM      M1      
 Compute Stats, Diag. #    217  SIheff    vol(   0 ): 3.580E+14  Parms: SM      M1      
 Compute Stats, Diag. #    219  SIhsnow   vol(   0 ): 3.580E+14  Parms: SM      M1      
 Compute Stats, Diag. #     83  sIceLoad  vol(   0 ): 3.580E+14  Parms: SM      U1      
 Compute Stats, Diag. #    223  SIuice    vol(   0 ): 3.513E+14  Parms: UU      M1      
 Compute Stats, Diag. #    224  SIvice    vol(   0 ): 3.508E+14  Parms: VV      M1      
 Compute Stats, Diag. #    225  SItaux    vol(   0 ): 3.513E+14  Parms: UU      U1      
 Compute Stats, Diag. #    226  SItauy    vol(   0 ): 3.508E+14  Parms: VV      U1      
 cg2d: Sum(rhs),rhsMax =  -3.96836372905666E+01  2.83844266707756E-01
 Compute Stats, Diag. #    214  SIarea    vol(   0 ): 3.580E+14  Parms: SM      M1      
 Compute Stats, Diag. #    217  SIheff    vol(   0 ): 3.580E+14  Parms: SM      M1      
 Compute Stats, Diag. #    219  SIhsnow   vol(   0 ): 3.580E+14  Parms: SM      M1      
 Compute Stats, Diag. #     83  sIceLoad  vol(   0 ): 3.580E+14  Parms: SM      U1      
 Compute Stats, Diag. #    223  SIuice    vol(   0 ): 3.513E+14  Parms: UU      M1      
 Compute Stats, Diag. #    224  SIvice    vol(   0 ): 3.508E+14  Parms: VV      M1      
 Compute Stats, Diag. #    225  SItaux    vol(   0 ): 3.513E+14  Parms: UU      U1      
 Compute Stats, Diag. #    226  SItauy    vol(   0 ): 3.508E+14  Parms: VV      U1      
 cg2d: Sum(rhs),rhsMax =  -3.98751997467141E+01  2.83911218698610E-01
 Compute Stats, Diag. #    214  SIarea    vol(   0 ): 3.580E+14  Parms: SM      M1      
 Compute Stats, Diag. #    217  SIheff    vol(   0 ): 3.580E+14  Parms: SM      M1      
 Compute Stats, Diag. #    219  SIhsnow   vol(   0 ): 3.580E+14  Parms: SM      M1      
 Compute Stats, Diag. #     83  sIceLoad  vol(   0 ): 3.580E+14  Parms: SM      U1      
 Compute Stats, Diag. #    223  SIuice    vol(   0 ): 3.513E+14  Parms: UU      M1      
 Compute Stats, Diag. #    224  SIvice    vol(   0 ): 3.508E+14  Parms: VV      M1      
 Compute Stats, Diag. #    225  SItaux    vol(   0 ): 3.513E+14  Parms: UU      U1      
 Compute Stats, Diag. #    226  SItauy    vol(   0 ): 3.508E+14  Parms: VV      U1      
 cg2d: Sum(rhs),rhsMax =  -4.00743759693457E+01  2.83979332553515E-01
(PID.TID 0000.0001)      cg2d_init_res =   4.58505707868279E-02
(PID.TID 0000.0001)      cg2d_iters(min,last) =      -1      24
(PID.TID 0000.0001)      cg2d_last_res =   2.61377538554155E-05
(PID.TID 0000.0001) // =======================================================
(PID.TID 0000.0001) // Begin MONITOR dynamic field statistics
(PID.TID 0000.0001) // =======================================================
(PID.TID 0000.0001) %MON time_tsnumber                =                  1048
(PID.TID 0000.0001) %MON time_secondsf                =   9.4320000000000E+05
(PID.TID 0000.0001) %MON dynstat_eta_max              =   1.0077466314460E+00
(PID.TID 0000.0001) %MON dynstat_eta_min              =  -1.8005366497856E+00
(PID.TID 0000.0001) %MON dynstat_eta_mean             =   1.2676805009752E-03
(PID.TID 0000.0001) %MON dynstat_eta_sd               =   6.2202124621586E-01
(PID.TID 0000.0001) %MON dynstat_eta_del2             =   5.1168846912915E-05
(PID.TID 0000.0001) %MON dynstat_uvel_max             =   6.8490405961890E-01
(PID.TID 0000.0001) %MON dynstat_uvel_min             =  -8.8877204055536E-01
(PID.TID 0000.0001) %MON dynstat_uvel_mean            =   1.3312616341977E-03
(PID.TID 0000.0001) %MON dynstat_uvel_sd              =   1.7860284923488E-02
(PID.TID 0000.0001) %MON dynstat_uvel_del2            =   7.0114647670832E-06
(PID.TID 0000.0001) %MON dynstat_vvel_max             =   6.3200525889333E-01
(PID.TID 0000.0001) %MON dynstat_vvel_min             =  -9.9109182454924E-01
(PID.TID 0000.0001) %MON dynstat_vvel_mean            =   1.0115001281759E-03
(PID.TID 0000.0001) %MON dynstat_vvel_sd              =   1.9314362094844E-02
(PID.TID 0000.0001) %MON dynstat_vvel_del2            =   7.1884308992484E-06
(PID.TID 0000.0001) %MON dynstat_wvel_max             =   3.0721833150162E-04
(PID.TID 0000.0001) %MON dynstat_wvel_min             =  -7.7256056768673E-04
(PID.TID 0000.0001) %MON dynstat_wvel_mean            =  -3.7050829637940E-09
(PID.TID 0000.0001) %MON dynstat_wvel_sd              =   1.5794374872841E-05
(PID.TID 0000.0001) %MON dynstat_wvel_del2            =   1.3607088247034E-08
(PID.TID 0000.0001) %MON dynstat_theta_max            =   3.1699567802818E+01
(PID.TID 0000.0001) %MON dynstat_theta_min            =  -2.0396466603260E+00
(PID.TID 0000.0001) %MON dynstat_theta_mean           =   3.5901111564717E+00
(PID.TID 0000.0001) %MON dynstat_theta_sd             =   4.4366696415717E+00
(PID.TID 0000.0001) %MON dynstat_theta_del2           =   9.0285795715352E-05
(PID.TID 0000.0001) %MON dynstat_salt_max             =   4.0711545010280E+01
(PID.TID 0000.0001) %MON dynstat_salt_min             =   4.9142342980751E+00
(PID.TID 0000.0001) %MON dynstat_salt_mean            =   3.4725560498932E+01
(PID.TID 0000.0001) %MON dynstat_salt_sd              =   3.7711439591587E-01
(PID.TID 0000.0001) %MON dynstat_salt_del2            =   3.5133625674590E-05
(PID.TID 0000.0001) %MON dynstat_sst_max              =   3.1699552654247E+01
(PID.TID 0000.0001) %MON dynstat_sst_min              =  -1.8098467220572E+00
(PID.TID 0000.0001) %MON dynstat_sst_mean             =   1.8449731361907E+01
(PID.TID 0000.0001) %MON dynstat_sst_sd               =   1.0287999801010E+01
(PID.TID 0000.0001) %MON dynstat_sst_del2             =   7.8954300072870E-04
(PID.TID 0000.0001) %MON dynstat_sss_max              =   3.9098078411653E+01
(PID.TID 0000.0001) %MON dynstat_sss_min              =   4.9142342980751E+00
(PID.TID 0000.0001) %MON dynstat_sss_mean             =   3.4701055437415E+01
(PID.TID 0000.0001) %MON dynstat_sss_sd               =   1.1827272265166E+00
(PID.TID 0000.0001) %MON dynstat_sss_del2             =   1.0648959440632E-03
(PID.TID 0000.0001) %MON forcing_qnet_max             =   2.3451750941717E+03
(PID.TID 0000.0001) %MON forcing_qnet_min             =  -9.9646579766520E+02
(PID.TID 0000.0001) %MON forcing_qnet_mean            =  -1.2034751454484E+01
(PID.TID 0000.0001) %MON forcing_qnet_sd              =   2.0232621023952E+02
(PID.TID 0000.0001) %MON forcing_qnet_del2            =   3.9417215774862E-01
(PID.TID 0000.0001) %MON forcing_qsw_max              =   0.0000000000000E+00
(PID.TID 0000.0001) %MON forcing_qsw_min              =  -1.0671197346486E+02
(PID.TID 0000.0001) %MON forcing_qsw_mean             =  -1.9983029480774E+01
(PID.TID 0000.0001) %MON forcing_qsw_sd               =   2.8859282742782E+01
(PID.TID 0000.0001) %MON forcing_qsw_del2             =   2.0144342288654E-02
(PID.TID 0000.0001) %MON forcing_empmr_max            =   8.7280274601653E-04
(PID.TID 0000.0001) %MON forcing_empmr_min            =  -8.8919781148434E-02
(PID.TID 0000.0001) %MON forcing_empmr_mean           =  -7.2036631888862E-06
(PID.TID 0000.0001) %MON forcing_empmr_sd             =   3.8709408317763E-04
(PID.TID 0000.0001) %MON forcing_empmr_del2           =   4.0240541310802E-06
(PID.TID 0000.0001) %MON forcing_fu_max               =   9.5049098134041E-01
(PID.TID 0000.0001) %MON forcing_fu_min               =  -1.1003372073174E+00
(PID.TID 0000.0001) %MON forcing_fu_mean              =   2.1609933588328E-03
(PID.TID 0000.0001) %MON forcing_fu_sd                =   1.0514035952026E-01
(PID.TID 0000.0001) %MON forcing_fu_del2              =   1.4287457166055E-04
(PID.TID 0000.0001) %MON forcing_fv_max               =   7.1505373716354E-01
(PID.TID 0000.0001) %MON forcing_fv_min               =  -7.8694695234299E-01
(PID.TID 0000.0001) %MON forcing_fv_mean              =  -1.0398374757057E-02
(PID.TID 0000.0001) %MON forcing_fv_sd                =   1.0675577611034E-01
(PID.TID 0000.0001) %MON forcing_fv_del2              =   1.3542754145601E-04
(PID.TID 0000.0001) %MON trAdv_CFL_u_max              =   1.1054199480854E-02
(PID.TID 0000.0001) %MON trAdv_CFL_v_max              =   1.2758533371191E-02
(PID.TID 0000.0001) %MON trAdv_CFL_w_max              =   2.0920362218163E-02
(PID.TID 0000.0001) %MON advcfl_uvel_max              =   9.7825611126597E-03
(PID.TID 0000.0001) %MON advcfl_vvel_max              =   1.3489419038103E-02
(PID.TID 0000.0001) %MON advcfl_wvel_max              =   2.2076344795086E-02
(PID.TID 0000.0001) %MON advcfl_W_hf_max              =   2.3150528690764E-02
(PID.TID 0000.0001) %MON pe_b_mean                    =   5.0894443865604E-04
(PID.TID 0000.0001) %MON ke_max                       =   5.0971733399465E-01
(PID.TID 0000.0001) %MON ke_mean                      =   3.3504423965516E-04
(PID.TID 0000.0001) %MON ke_vol                       =   1.3349983285308E+18
(PID.TID 0000.0001) %MON vort_r_min                   =  -1.8533642510324E-05
(PID.TID 0000.0001) %MON vort_r_max                   =   2.1501306716575E-05
(PID.TID 0000.0001) %MON vort_a_mean                  =  -1.9727864647440E-05
(PID.TID 0000.0001) %MON vort_a_sd                    =   7.4542966702644E-05
(PID.TID 0000.0001) %MON vort_p_mean                  =  -2.1760526091236E-05
(PID.TID 0000.0001) %MON vort_p_sd                    =   9.7246332173140E-05
(PID.TID 0000.0001) %MON surfExpan_theta_mean         =   8.4101061702194E-08
(PID.TID 0000.0001) %MON surfExpan_salt_mean          =   7.7003429450546E-08
(PID.TID 0000.0001) // =======================================================
(PID.TID 0000.0001) // End MONITOR dynamic field statistics
(PID.TID 0000.0001) // =======================================================
(PID.TID 0000.0001) // =======================================================
(PID.TID 0000.0001) // Begin MONITOR SEAICE statistics
(PID.TID 0000.0001) // =======================================================
(PID.TID 0000.0001) %MON seaice_tsnumber              =                  1048
(PID.TID 0000.0001) %MON seaice_time_sec              =   9.4320000000000E+05
(PID.TID 0000.0001) %MON seaice_uice_max              =   4.0000000000000E-01
(PID.TID 0000.0001) %MON seaice_uice_min              =  -4.0000000000000E-01
(PID.TID 0000.0001) %MON seaice_uice_mean             =  -8.3054598624025E-03
(PID.TID 0000.0001) %MON seaice_uice_sd               =   1.9802383574176E-01
(PID.TID 0000.0001) %MON seaice_uice_del2             =   2.2931571122150E-04
(PID.TID 0000.0001) %MON seaice_vice_max              =   4.0000000000000E-01
(PID.TID 0000.0001) %MON seaice_vice_min              =  -4.0000000000000E-01
(PID.TID 0000.0001) %MON seaice_vice_mean             =  -2.1960776359499E-02
(PID.TID 0000.0001) %MON seaice_vice_sd               =   2.1302038025672E-01
(PID.TID 0000.0001) %MON seaice_vice_del2             =   2.3932563818061E-04
(PID.TID 0000.0001) %MON seaice_area_max              =   1.0000000000000E+00
(PID.TID 0000.0001) %MON seaice_area_min              =   0.0000000000000E+00
(PID.TID 0000.0001) %MON seaice_area_mean             =   6.4854977807160E-02
(PID.TID 0000.0001) %MON seaice_area_sd               =   2.2808859532655E-01
(PID.TID 0000.0001) %MON seaice_area_del2             =   3.7681693959104E-04
(PID.TID 0000.0001) %MON seaice_heff_max              =   2.4909410215798E+01
(PID.TID 0000.0001) %MON seaice_heff_min              =   0.0000000000000E+00
(PID.TID 0000.0001) %MON seaice_heff_mean             =   2.1163504248691E-01
(PID.TID 0000.0001) %MON seaice_heff_sd               =   1.0656686994736E+00
(PID.TID 0000.0001) %MON seaice_heff_del2             =   3.8179316292673E-03
(PID.TID 0000.0001) %MON seaice_hsnow_max             =   8.2276227486436E+00
(PID.TID 0000.0001) %MON seaice_hsnow_min             =   0.0000000000000E+00
(PID.TID 0000.0001) %MON seaice_hsnow_mean            =   2.3843749900413E-02
(PID.TID 0000.0001) %MON seaice_hsnow_sd              =   1.5575687562462E-01
(PID.TID 0000.0001) %MON seaice_hsnow_del2            =   1.2350599508563E-03
(PID.TID 0000.0001) // =======================================================
(PID.TID 0000.0001) // End MONITOR SEAICE statistics
(PID.TID 0000.0001) // =======================================================
 Computing Diagnostic #     86  oceQnet      Counter:       4   Parms: SM      U1      
 Computing Diagnostic #     87  oceQsw       Counter:       4   Parms: SM      U1      
 Computing Diagnostic #     84  oceFWflx     Counter:       4   Parms: SM      U1      
 Computing Diagnostic #     85  oceSflux     Counter:       4   Parms: SM      U1      
 Computing Diagnostic #     80  oceTAUX      Counter:       4   Parms: UU      U1      
           Vector  Mate for  oceTAUX      Diagnostic #     81  oceTAUY  exists 
 Computing Diagnostic #     81  oceTAUY      Counter:       4   Parms: VV      U1      
           Vector  Mate for  oceTAUY      Diagnostic #     80  oceTAUX  exists 
 Computing Diagnostic #     26  THETA        Counter:       4   Parms: SMR     MR      
 Computing Diagnostic #     27  SALT         Counter:       4   Parms: SMR     MR      
 Computing Diagnostic #     30  UVEL         Counter:       4   Parms: UUR     MR      
           Vector  Mate for  UVEL         Diagnostic #     31  VVEL     exists 
 Computing Diagnostic #     31  VVEL         Counter:       4   Parms: VVR     MR      
           Vector  Mate for  VVEL         Diagnostic #     30  UVEL     exists 
 Computing Diagnostic #    214  SIarea       Counter:       4   Parms: SM      M1      
 Computing Diagnostic #    217  SIheff       Counter:       4   Parms: SM      M1      
 Computing Diagnostic #    219  SIhsnow      Counter:       4   Parms: SM      M1      
 Computing Diagnostic #     83  sIceLoad     Counter:       4   Parms: SM      U1      
 Computing Diagnostic #    223  SIuice       Counter:       4   Parms: UU      M1      
           Vector  Mate for  SIuice       Diagnostic #    224  SIvice   exists 
 Computing Diagnostic #    224  SIvice       Counter:       4   Parms: VV      M1      
           Vector  Mate for  SIvice       Diagnostic #    223  SIuice   exists 
 Computing Diagnostic #    225  SItaux       Counter:       4   Parms: UU      U1      
           Vector  Mate for  SItaux       Diagnostic #    226  SItauy   exists 
 Computing Diagnostic #    226  SItauy       Counter:       4   Parms: VV      U1      
           Vector  Mate for  SItauy       Diagnostic #    225  SItaux   exists 
 Computing Diagnostic #    285  SIareaN      Counter:       4   Parms: SM      MX      
 Computing Diagnostic #    284  SIheffN      Counter:       4   Parms: SM      MX      
 Computing Diagnostic #    286  SIhsnowN     Counter:       4   Parms: SM      MX      
 Compute Stats, Diag. #    214  SIarea    vol(   0 ): 3.580E+14  Parms: SM      M1      
 Compute Stats, Diag. #    217  SIheff    vol(   0 ): 3.580E+14  Parms: SM      M1      
 Compute Stats, Diag. #    219  SIhsnow   vol(   0 ): 3.580E+14  Parms: SM      M1      
 Compute Stats, Diag. #     83  sIceLoad  vol(   0 ): 3.580E+14  Parms: SM      U1      
 Compute Stats, Diag. #    223  SIuice    vol(   0 ): 3.513E+14  Parms: UU      M1      
 Compute Stats, Diag. #    224  SIvice    vol(   0 ): 3.508E+14  Parms: VV      M1      
 Compute Stats, Diag. #    225  SItaux    vol(   0 ): 3.513E+14  Parms: UU      U1      
 Compute Stats, Diag. #    226  SItauy    vol(   0 ): 3.508E+14  Parms: VV      U1      
 cg2d: Sum(rhs),rhsMax =  -4.02481862423658E+01  2.84048211490634E-01
 Compute Stats, Diag. #    214  SIarea    vol(   0 ): 3.580E+14  Parms: SM      M1      
 Compute Stats, Diag. #    217  SIheff    vol(   0 ): 3.580E+14  Parms: SM      M1      
 Compute Stats, Diag. #    219  SIhsnow   vol(   0 ): 3.580E+14  Parms: SM      M1      
 Compute Stats, Diag. #     83  sIceLoad  vol(   0 ): 3.580E+14  Parms: SM      U1      
 Compute Stats, Diag. #    223  SIuice    vol(   0 ): 3.513E+14  Parms: UU      M1      
 Compute Stats, Diag. #    224  SIvice    vol(   0 ): 3.508E+14  Parms: VV      M1      
 Compute Stats, Diag. #    225  SItaux    vol(   0 ): 3.513E+14  Parms: UU      U1      
 Compute Stats, Diag. #    226  SItauy    vol(   0 ): 3.508E+14  Parms: VV      U1      
 cg2d: Sum(rhs),rhsMax =  -4.04120032217500E+01  2.84117468911455E-01
 Compute Stats, Diag. #    214  SIarea    vol(   0 ): 3.580E+14  Parms: SM      M1      
 Compute Stats, Diag. #    217  SIheff    vol(   0 ): 3.580E+14  Parms: SM      M1      
 Compute Stats, Diag. #    219  SIhsnow   vol(   0 ): 3.580E+14  Parms: SM      M1      
 Compute Stats, Diag. #     83  sIceLoad  vol(   0 ): 3.580E+14  Parms: SM      U1      
 Compute Stats, Diag. #    223  SIuice    vol(   0 ): 3.513E+14  Parms: UU      M1      
 Compute Stats, Diag. #    224  SIvice    vol(   0 ): 3.508E+14  Parms: VV      M1      
 Compute Stats, Diag. #    225  SItaux    vol(   0 ): 3.513E+14  Parms: UU      U1      
 Compute Stats, Diag. #    226  SItauy    vol(   0 ): 3.508E+14  Parms: VV      U1      
 cg2d: Sum(rhs),rhsMax =  -4.05547261958538E+01  2.84186803221172E-01
 Compute Stats, Diag. #    214  SIarea    vol(   0 ): 3.580E+14  Parms: SM      M1      
 Compute Stats, Diag. #    217  SIheff    vol(   0 ): 3.580E+14  Parms: SM      M1      
 Compute Stats, Diag. #    219  SIhsnow   vol(   0 ): 3.580E+14  Parms: SM      M1      
 Compute Stats, Diag. #     83  sIceLoad  vol(   0 ): 3.580E+14  Parms: SM      U1      
 Compute Stats, Diag. #    223  SIuice    vol(   0 ): 3.513E+14  Parms: UU      M1      
 Compute Stats, Diag. #    224  SIvice    vol(   0 ): 3.508E+14  Parms: VV      M1      
 Compute Stats, Diag. #    225  SItaux    vol(   0 ): 3.513E+14  Parms: UU      U1      
 Compute Stats, Diag. #    226  SItauy    vol(   0 ): 3.508E+14  Parms: VV      U1      
 cg2d: Sum(rhs),rhsMax =  -4.07036113701161E+01  2.84255297911980E-01
 Computing Diagnostic #     86  oceQnet      Counter:       4   Parms: SM      U1      
 Computing Diagnostic #     87  oceQsw       Counter:       4   Parms: SM      U1      
 Computing Diagnostic #     84  oceFWflx     Counter:       4   Parms: SM      U1      
 Computing Diagnostic #     85  oceSflux     Counter:       4   Parms: SM      U1      
 Computing Diagnostic #     80  oceTAUX      Counter:       4   Parms: UU      U1      
           Vector  Mate for  oceTAUX      Diagnostic #     81  oceTAUY  exists 
 Computing Diagnostic #     81  oceTAUY      Counter:       4   Parms: VV      U1      
           Vector  Mate for  oceTAUY      Diagnostic #     80  oceTAUX  exists 
 Computing Diagnostic #     26  THETA        Counter:       4   Parms: SMR     MR      
 Computing Diagnostic #     27  SALT         Counter:       4   Parms: SMR     MR      
 Computing Diagnostic #     30  UVEL         Counter:       4   Parms: UUR     MR      
           Vector  Mate for  UVEL         Diagnostic #     31  VVEL     exists 
 Computing Diagnostic #     31  VVEL         Counter:       4   Parms: VVR     MR      
           Vector  Mate for  VVEL         Diagnostic #     30  UVEL     exists 
 Computing Diagnostic #    214  SIarea       Counter:       4   Parms: SM      M1      
 Computing Diagnostic #    217  SIheff       Counter:       4   Parms: SM      M1      
 Computing Diagnostic #    219  SIhsnow      Counter:       4   Parms: SM      M1      
 Computing Diagnostic #     83  sIceLoad     Counter:       4   Parms: SM      U1      
 Computing Diagnostic #    223  SIuice       Counter:       4   Parms: UU      M1      
           Vector  Mate for  SIuice       Diagnostic #    224  SIvice   exists 
 Computing Diagnostic #    224  SIvice       Counter:       4   Parms: VV      M1      
           Vector  Mate for  SIvice       Diagnostic #    223  SIuice   exists 
 Computing Diagnostic #    225  SItaux       Counter:       4   Parms: UU      U1      
           Vector  Mate for  SItaux       Diagnostic #    226  SItauy   exists 
 Computing Diagnostic #    226  SItauy       Counter:       4   Parms: VV      U1      
           Vector  Mate for  SItauy       Diagnostic #    225  SItaux   exists 
 Computing Diagnostic #    285  SIareaN      Counter:       4   Parms: SM      MX      
 Computing Diagnostic #    284  SIheffN      Counter:       4   Parms: SM      MX      
 Computing Diagnostic #    286  SIhsnowN     Counter:       4   Parms: SM      MX      
 Compute Stats, Diag. #    214  SIarea    vol(   0 ): 3.580E+14  Parms: SM      M1      
 Compute Stats, Diag. #    217  SIheff    vol(   0 ): 3.580E+14  Parms: SM      M1      
 Compute Stats, Diag. #    219  SIhsnow   vol(   0 ): 3.580E+14  Parms: SM      M1      
 Compute Stats, Diag. #     83  sIceLoad  vol(   0 ): 3.580E+14  Parms: SM      U1      
 Compute Stats, Diag. #    223  SIuice    vol(   0 ): 3.513E+14  Parms: UU      M1      
 Compute Stats, Diag. #    224  SIvice    vol(   0 ): 3.508E+14  Parms: VV      M1      
 Compute Stats, Diag. #    225  SItaux    vol(   0 ): 3.513E+14  Parms: UU      U1      
 Compute Stats, Diag. #    226  SItauy    vol(   0 ): 3.508E+14  Parms: VV      U1      
 cg2d: Sum(rhs),rhsMax =  -4.08592041691600E+01  2.84321933873056E-01
 Compute Stats, Diag. #    214  SIarea    vol(   0 ): 3.580E+14  Parms: SM      M1      
 Compute Stats, Diag. #    217  SIheff    vol(   0 ): 3.580E+14  Parms: SM      M1      
 Compute Stats, Diag. #    219  SIhsnow   vol(   0 ): 3.580E+14  Parms: SM      M1      
 Compute Stats, Diag. #     83  sIceLoad  vol(   0 ): 3.580E+14  Parms: SM      U1      
 Compute Stats, Diag. #    223  SIuice    vol(   0 ): 3.513E+14  Parms: UU      M1      
 Compute Stats, Diag. #    224  SIvice    vol(   0 ): 3.508E+14  Parms: VV      M1      
 Compute Stats, Diag. #    225  SItaux    vol(   0 ): 3.513E+14  Parms: UU      U1      
 Compute Stats, Diag. #    226  SItauy    vol(   0 ): 3.508E+14  Parms: VV      U1      
 cg2d: Sum(rhs),rhsMax =  -4.09885571161711E+01  2.84387400971640E-01
 Compute Stats, Diag. #    214  SIarea    vol(   0 ): 3.580E+14  Parms: SM      M1      
 Compute Stats, Diag. #    217  SIheff    vol(   0 ): 3.580E+14  Parms: SM      M1      
 Compute Stats, Diag. #    219  SIhsnow   vol(   0 ): 3.580E+14  Parms: SM      M1      
 Compute Stats, Diag. #     83  sIceLoad  vol(   0 ): 3.580E+14  Parms: SM      U1      
 Compute Stats, Diag. #    223  SIuice    vol(   0 ): 3.513E+14  Parms: UU      M1      
 Compute Stats, Diag. #    224  SIvice    vol(   0 ): 3.508E+14  Parms: VV      M1      
 Compute Stats, Diag. #    225  SItaux    vol(   0 ): 3.513E+14  Parms: UU      U1      
 Compute Stats, Diag. #    226  SItauy    vol(   0 ): 3.508E+14  Parms: VV      U1      
 cg2d: Sum(rhs),rhsMax =  -4.10965433874385E+01  2.84452608098235E-01
 Compute Stats, Diag. #    214  SIarea    vol(   0 ): 3.580E+14  Parms: SM      M1      
 Compute Stats, Diag. #    217  SIheff    vol(   0 ): 3.580E+14  Parms: SM      M1      
 Compute Stats, Diag. #    219  SIhsnow   vol(   0 ): 3.580E+14  Parms: SM      M1      
 Compute Stats, Diag. #     83  sIceLoad  vol(   0 ): 3.580E+14  Parms: SM      U1      
 Compute Stats, Diag. #    223  SIuice    vol(   0 ): 3.513E+14  Parms: UU      M1      
 Compute Stats, Diag. #    224  SIvice    vol(   0 ): 3.508E+14  Parms: VV      M1      
 Compute Stats, Diag. #    225  SItaux    vol(   0 ): 3.513E+14  Parms: UU      U1      
 Compute Stats, Diag. #    226  SItauy    vol(   0 ): 3.508E+14  Parms: VV      U1      
 cg2d: Sum(rhs),rhsMax =  -4.11956612698916E+01  2.84516798473445E-01
(PID.TID 0000.0001)      cg2d_init_res =   4.65955714371624E-02
(PID.TID 0000.0001)      cg2d_iters(min,last) =      -1      24
(PID.TID 0000.0001)      cg2d_last_res =   2.43954708003353E-05
(PID.TID 0000.0001) // =======================================================
(PID.TID 0000.0001) // Begin MONITOR dynamic field statistics
(PID.TID 0000.0001) // =======================================================
(PID.TID 0000.0001) %MON time_tsnumber                =                  1056
(PID.TID 0000.0001) %MON time_secondsf                =   9.5040000000000E+05
(PID.TID 0000.0001) %MON dynstat_eta_max              =   1.0072420036188E+00
(PID.TID 0000.0001) %MON dynstat_eta_min              =  -1.8006442269903E+00
(PID.TID 0000.0001) %MON dynstat_eta_mean             =   1.3031503361788E-03
(PID.TID 0000.0001) %MON dynstat_eta_sd               =   6.2204636809131E-01
(PID.TID 0000.0001) %MON dynstat_eta_del2             =   5.1033200498841E-05
(PID.TID 0000.0001) %MON dynstat_uvel_max             =   6.8458372857851E-01
(PID.TID 0000.0001) %MON dynstat_uvel_min             =  -8.9606327193346E-01
(PID.TID 0000.0001) %MON dynstat_uvel_mean            =   1.3251023897707E-03
(PID.TID 0000.0001) %MON dynstat_uvel_sd              =   1.7857389713517E-02
(PID.TID 0000.0001) %MON dynstat_uvel_del2            =   6.9920272914139E-06
(PID.TID 0000.0001) %MON dynstat_vvel_max             =   6.0215175542965E-01
(PID.TID 0000.0001) %MON dynstat_vvel_min             =  -1.0020211358761E+00
(PID.TID 0000.0001) %MON dynstat_vvel_mean            =   1.0105044264189E-03
(PID.TID 0000.0001) %MON dynstat_vvel_sd              =   1.9324815384026E-02
(PID.TID 0000.0001) %MON dynstat_vvel_del2            =   7.1890765796149E-06
(PID.TID 0000.0001) %MON dynstat_wvel_max             =   3.0778648921523E-04
(PID.TID 0000.0001) %MON dynstat_wvel_min             =  -7.7436866473058E-04
(PID.TID 0000.0001) %MON dynstat_wvel_mean            =   1.2106385787094E-10
(PID.TID 0000.0001) %MON dynstat_wvel_sd              =   1.5665643452428E-05
(PID.TID 0000.0001) %MON dynstat_wvel_del2            =   1.3578815230762E-08
(PID.TID 0000.0001) %MON dynstat_theta_max            =   3.1679477216884E+01
(PID.TID 0000.0001) %MON dynstat_theta_min            =  -2.0396413020898E+00
(PID.TID 0000.0001) %MON dynstat_theta_mean           =   3.5901207768327E+00
(PID.TID 0000.0001) %MON dynstat_theta_sd             =   4.4367249905875E+00
(PID.TID 0000.0001) %MON dynstat_theta_del2           =   9.0229170178460E-05
(PID.TID 0000.0001) %MON dynstat_salt_max             =   4.0711545375652E+01
(PID.TID 0000.0001) %MON dynstat_salt_min             =   4.7416579756717E+00
(PID.TID 0000.0001) %MON dynstat_salt_mean            =   3.4725560182497E+01
(PID.TID 0000.0001) %MON dynstat_salt_sd              =   3.7711798889665E-01
(PID.TID 0000.0001) %MON dynstat_salt_del2            =   3.5227728878822E-05
(PID.TID 0000.0001) %MON dynstat_sst_max              =   3.1679460342198E+01
(PID.TID 0000.0001) %MON dynstat_sst_min              =  -1.8078094645152E+00
(PID.TID 0000.0001) %MON dynstat_sst_mean             =   1.8452642909513E+01
(PID.TID 0000.0001) %MON dynstat_sst_sd               =   1.0289852563973E+01
(PID.TID 0000.0001) %MON dynstat_sst_del2             =   7.8928538374292E-04
(PID.TID 0000.0001) %MON dynstat_sss_max              =   3.9098067153380E+01
(PID.TID 0000.0001) %MON dynstat_sss_min              =   4.7416579756717E+00
(PID.TID 0000.0001) %MON dynstat_sss_mean             =   3.4701080205260E+01
(PID.TID 0000.0001) %MON dynstat_sss_sd               =   1.1831978364058E+00
(PID.TID 0000.0001) %MON dynstat_sss_del2             =   1.0697843211130E-03
(PID.TID 0000.0001) %MON forcing_qnet_max             =   1.1981984863281E+03
(PID.TID 0000.0001) %MON forcing_qnet_min             =  -1.1300096435547E+03
(PID.TID 0000.0001) %MON forcing_qnet_mean            =  -2.7024483048594E+01
(PID.TID 0000.0001) %MON forcing_qnet_sd              =   2.1636099505339E+02
(PID.TID 0000.0001) %MON forcing_qnet_del2            =   3.3834087891975E-01
(PID.TID 0000.0001) %MON forcing_qsw_max              =   0.0000000000000E+00
(PID.TID 0000.0001) %MON forcing_qsw_min              =  -1.0971797429065E+02
(PID.TID 0000.0001) %MON forcing_qsw_mean             =  -2.1995958387009E+01
(PID.TID 0000.0001) %MON forcing_qsw_sd               =   3.0990324509470E+01
(PID.TID 0000.0001) %MON forcing_qsw_del2             =   1.8860637883388E-02
(PID.TID 0000.0001) %MON forcing_empmr_max            =   9.5570326084271E-04
(PID.TID 0000.0001) %MON forcing_empmr_min            =  -7.8649356961250E-02
(PID.TID 0000.0001) %MON forcing_empmr_mean           =  -3.5848246930480E-06
(PID.TID 0000.0001) %MON forcing_empmr_sd             =   3.5401393821088E-04
(PID.TID 0000.0001) %MON forcing_empmr_del2           =   3.6881493498018E-06
(PID.TID 0000.0001) %MON forcing_fu_max               =   9.6765571832657E-01
(PID.TID 0000.0001) %MON forcing_fu_min               =  -1.1028531789780E+00
(PID.TID 0000.0001) %MON forcing_fu_mean              =   2.2908210277093E-03
(PID.TID 0000.0001) %MON forcing_fu_sd                =   1.0532526839573E-01
(PID.TID 0000.0001) %MON forcing_fu_del2              =   1.4175226266848E-04
(PID.TID 0000.0001) %MON forcing_fv_max               =   6.6835156083107E-01
(PID.TID 0000.0001) %MON forcing_fv_min               =  -8.2560831308365E-01
(PID.TID 0000.0001) %MON forcing_fv_mean              =  -1.0175079019203E-02
(PID.TID 0000.0001) %MON forcing_fv_sd                =   1.0612047564213E-01
(PID.TID 0000.0001) %MON forcing_fv_del2              =   1.3623976532169E-04
(PID.TID 0000.0001) %MON trAdv_CFL_u_max              =   1.1290871917397E-02
(PID.TID 0000.0001) %MON trAdv_CFL_v_max              =   1.2868777259310E-02
(PID.TID 0000.0001) %MON trAdv_CFL_w_max              =   2.0180611960428E-02
(PID.TID 0000.0001) %MON advcfl_uvel_max              =   1.0029013333251E-02
(PID.TID 0000.0001) %MON advcfl_vvel_max              =   1.2852230640838E-02
(PID.TID 0000.0001) %MON advcfl_wvel_max              =   2.2407481345114E-02
(PID.TID 0000.0001) %MON advcfl_W_hf_max              =   2.3499299082887E-02
(PID.TID 0000.0001) %MON pe_b_mean                    =   5.0898566396380E-04
(PID.TID 0000.0001) %MON ke_max                       =   5.1969857405811E-01
(PID.TID 0000.0001) %MON ke_mean                      =   3.3518032247051E-04
(PID.TID 0000.0001) %MON ke_vol                       =   1.3349983423627E+18
(PID.TID 0000.0001) %MON vort_r_min                   =  -1.7485538733913E-05
(PID.TID 0000.0001) %MON vort_r_max                   =   2.0583992397186E-05
(PID.TID 0000.0001) %MON vort_a_mean                  =  -1.9727864647440E-05
(PID.TID 0000.0001) %MON vort_a_sd                    =   7.4542966604391E-05
(PID.TID 0000.0001) %MON vort_p_mean                  =  -2.1760525908333E-05
(PID.TID 0000.0001) %MON vort_p_sd                    =   9.7246373983665E-05
(PID.TID 0000.0001) %MON surfExpan_theta_mean         =   2.0383136763892E-07
(PID.TID 0000.0001) %MON surfExpan_salt_mean          =   7.7223830265812E-08
(PID.TID 0000.0001) // =======================================================
(PID.TID 0000.0001) // End MONITOR dynamic field statistics
(PID.TID 0000.0001) // =======================================================
(PID.TID 0000.0001) // =======================================================
(PID.TID 0000.0001) // Begin MONITOR SEAICE statistics
(PID.TID 0000.0001) // =======================================================
(PID.TID 0000.0001) %MON seaice_tsnumber              =                  1056
(PID.TID 0000.0001) %MON seaice_time_sec              =   9.5040000000000E+05
(PID.TID 0000.0001) %MON seaice_uice_max              =   4.0000000000000E-01
(PID.TID 0000.0001) %MON seaice_uice_min              =  -4.0000000000000E-01
(PID.TID 0000.0001) %MON seaice_uice_mean             =  -8.3054598624025E-03
(PID.TID 0000.0001) %MON seaice_uice_sd               =   1.9802383574176E-01
(PID.TID 0000.0001) %MON seaice_uice_del2             =   2.2931571122150E-04
(PID.TID 0000.0001) %MON seaice_vice_max              =   4.0000000000000E-01
(PID.TID 0000.0001) %MON seaice_vice_min              =  -4.0000000000000E-01
(PID.TID 0000.0001) %MON seaice_vice_mean             =  -2.1960776359499E-02
(PID.TID 0000.0001) %MON seaice_vice_sd               =   2.1302038025672E-01
(PID.TID 0000.0001) %MON seaice_vice_del2             =   2.3932563818061E-04
(PID.TID 0000.0001) %MON seaice_area_max              =   9.9999999813735E-01
(PID.TID 0000.0001) %MON seaice_area_min              =   0.0000000000000E+00
(PID.TID 0000.0001) %MON seaice_area_mean             =   6.4831251809106E-02
(PID.TID 0000.0001) %MON seaice_area_sd               =   2.2804562841124E-01
(PID.TID 0000.0001) %MON seaice_area_del2             =   3.7653174100948E-04
(PID.TID 0000.0001) %MON seaice_heff_max              =   2.4907472015591E+01
(PID.TID 0000.0001) %MON seaice_heff_min              =   0.0000000000000E+00
(PID.TID 0000.0001) %MON seaice_heff_mean             =   2.1161292416934E-01
(PID.TID 0000.0001) %MON seaice_heff_sd               =   1.0656489501376E+00
(PID.TID 0000.0001) %MON seaice_heff_del2             =   3.8173344879053E-03
(PID.TID 0000.0001) %MON seaice_hsnow_max             =   8.2269820039510E+00
(PID.TID 0000.0001) %MON seaice_hsnow_min             =   0.0000000000000E+00
(PID.TID 0000.0001) %MON seaice_hsnow_mean            =   2.3842607348148E-02
(PID.TID 0000.0001) %MON seaice_hsnow_sd              =   1.5575189410655E-01
(PID.TID 0000.0001) %MON seaice_hsnow_del2            =   1.2349292403212E-03
(PID.TID 0000.0001) // =======================================================
(PID.TID 0000.0001) // End MONITOR SEAICE statistics
(PID.TID 0000.0001) // =======================================================
 Computing Diagnostic #     86  oceQnet      Counter:       4   Parms: SM      U1      
 Computing Diagnostic #     87  oceQsw       Counter:       4   Parms: SM      U1      
 Computing Diagnostic #     84  oceFWflx     Counter:       4   Parms: SM      U1      
 Computing Diagnostic #     85  oceSflux     Counter:       4   Parms: SM      U1      
 Computing Diagnostic #     80  oceTAUX      Counter:       4   Parms: UU      U1      
           Vector  Mate for  oceTAUX      Diagnostic #     81  oceTAUY  exists 
 Computing Diagnostic #     81  oceTAUY      Counter:       4   Parms: VV      U1      
           Vector  Mate for  oceTAUY      Diagnostic #     80  oceTAUX  exists 
 Computing Diagnostic #     26  THETA        Counter:       4   Parms: SMR     MR      
 Computing Diagnostic #     27  SALT         Counter:       4   Parms: SMR     MR      
 Computing Diagnostic #     30  UVEL         Counter:       4   Parms: UUR     MR      
           Vector  Mate for  UVEL         Diagnostic #     31  VVEL     exists 
 Computing Diagnostic #     31  VVEL         Counter:       4   Parms: VVR     MR      
           Vector  Mate for  VVEL         Diagnostic #     30  UVEL     exists 
 Computing Diagnostic #    214  SIarea       Counter:       4   Parms: SM      M1      
 Computing Diagnostic #    217  SIheff       Counter:       4   Parms: SM      M1      
 Computing Diagnostic #    219  SIhsnow      Counter:       4   Parms: SM      M1      
 Computing Diagnostic #     83  sIceLoad     Counter:       4   Parms: SM      U1      
 Computing Diagnostic #    223  SIuice       Counter:       4   Parms: UU      M1      
           Vector  Mate for  SIuice       Diagnostic #    224  SIvice   exists 
 Computing Diagnostic #    224  SIvice       Counter:       4   Parms: VV      M1      
           Vector  Mate for  SIvice       Diagnostic #    223  SIuice   exists 
 Computing Diagnostic #    225  SItaux       Counter:       4   Parms: UU      U1      
           Vector  Mate for  SItaux       Diagnostic #    226  SItauy   exists 
 Computing Diagnostic #    226  SItauy       Counter:       4   Parms: VV      U1      
           Vector  Mate for  SItauy       Diagnostic #    225  SItaux   exists 
 Computing Diagnostic #    285  SIareaN      Counter:       4   Parms: SM      MX      
 Computing Diagnostic #    284  SIheffN      Counter:       4   Parms: SM      MX      
 Computing Diagnostic #    286  SIhsnowN     Counter:       4   Parms: SM      MX      
 Compute Stats, Diag. #    214  SIarea    vol(   0 ): 3.580E+14  Parms: SM      M1      
 Compute Stats, Diag. #    217  SIheff    vol(   0 ): 3.580E+14  Parms: SM      M1      
 Compute Stats, Diag. #    219  SIhsnow   vol(   0 ): 3.580E+14  Parms: SM      M1      
 Compute Stats, Diag. #     83  sIceLoad  vol(   0 ): 3.580E+14  Parms: SM      U1      
 Compute Stats, Diag. #    223  SIuice    vol(   0 ): 3.513E+14  Parms: UU      M1      
 Compute Stats, Diag. #    224  SIvice    vol(   0 ): 3.508E+14  Parms: VV      M1      
 Compute Stats, Diag. #    225  SItaux    vol(   0 ): 3.513E+14  Parms: UU      U1      
 Compute Stats, Diag. #    226  SItauy    vol(   0 ): 3.508E+14  Parms: VV      U1      
 cg2d: Sum(rhs),rhsMax =  -4.12957272752340E+01  2.84578395981884E-01
 Compute Stats, Diag. #    214  SIarea    vol(   0 ): 3.580E+14  Parms: SM      M1      
 Compute Stats, Diag. #    217  SIheff    vol(   0 ): 3.580E+14  Parms: SM      M1      
 Compute Stats, Diag. #    219  SIhsnow   vol(   0 ): 3.580E+14  Parms: SM      M1      
 Compute Stats, Diag. #     83  sIceLoad  vol(   0 ): 3.580E+14  Parms: SM      U1      
 Compute Stats, Diag. #    223  SIuice    vol(   0 ): 3.513E+14  Parms: UU      M1      
 Compute Stats, Diag. #    224  SIvice    vol(   0 ): 3.508E+14  Parms: VV      M1      
 Compute Stats, Diag. #    225  SItaux    vol(   0 ): 3.513E+14  Parms: UU      U1      
 Compute Stats, Diag. #    226  SItauy    vol(   0 ): 3.508E+14  Parms: VV      U1      
 cg2d: Sum(rhs),rhsMax =  -4.14059459507526E+01  2.84636991534279E-01
 Compute Stats, Diag. #    214  SIarea    vol(   0 ): 3.580E+14  Parms: SM      M1      
 Compute Stats, Diag. #    217  SIheff    vol(   0 ): 3.580E+14  Parms: SM      M1      
 Compute Stats, Diag. #    219  SIhsnow   vol(   0 ): 3.580E+14  Parms: SM      M1      
 Compute Stats, Diag. #     83  sIceLoad  vol(   0 ): 3.580E+14  Parms: SM      U1      
 Compute Stats, Diag. #    223  SIuice    vol(   0 ): 3.513E+14  Parms: UU      M1      
 Compute Stats, Diag. #    224  SIvice    vol(   0 ): 3.508E+14  Parms: VV      M1      
 Compute Stats, Diag. #    225  SItaux    vol(   0 ): 3.513E+14  Parms: UU      U1      
 Compute Stats, Diag. #    226  SItauy    vol(   0 ): 3.508E+14  Parms: VV      U1      
 cg2d: Sum(rhs),rhsMax =  -4.14983803602322E+01  2.84692885203116E-01
 Compute Stats, Diag. #    214  SIarea    vol(   0 ): 3.580E+14  Parms: SM      M1      
 Compute Stats, Diag. #    217  SIheff    vol(   0 ): 3.580E+14  Parms: SM      M1      
 Compute Stats, Diag. #    219  SIhsnow   vol(   0 ): 3.580E+14  Parms: SM      M1      
 Compute Stats, Diag. #     83  sIceLoad  vol(   0 ): 3.580E+14  Parms: SM      U1      
 Compute Stats, Diag. #    223  SIuice    vol(   0 ): 3.513E+14  Parms: UU      M1      
 Compute Stats, Diag. #    224  SIvice    vol(   0 ): 3.508E+14  Parms: VV      M1      
 Compute Stats, Diag. #    225  SItaux    vol(   0 ): 3.513E+14  Parms: UU      U1      
 Compute Stats, Diag. #    226  SItauy    vol(   0 ): 3.508E+14  Parms: VV      U1      
 cg2d: Sum(rhs),rhsMax =  -4.15935749644643E+01  2.84745566690076E-01
 Computing Diagnostic #     86  oceQnet      Counter:       4   Parms: SM      U1      
 Computing Diagnostic #     87  oceQsw       Counter:       4   Parms: SM      U1      
 Computing Diagnostic #     84  oceFWflx     Counter:       4   Parms: SM      U1      
 Computing Diagnostic #     85  oceSflux     Counter:       4   Parms: SM      U1      
 Computing Diagnostic #     80  oceTAUX      Counter:       4   Parms: UU      U1      
           Vector  Mate for  oceTAUX      Diagnostic #     81  oceTAUY  exists 
 Computing Diagnostic #     81  oceTAUY      Counter:       4   Parms: VV      U1      
           Vector  Mate for  oceTAUY      Diagnostic #     80  oceTAUX  exists 
 Computing Diagnostic #     26  THETA        Counter:       4   Parms: SMR     MR      
 Computing Diagnostic #     27  SALT         Counter:       4   Parms: SMR     MR      
 Computing Diagnostic #     30  UVEL         Counter:       4   Parms: UUR     MR      
           Vector  Mate for  UVEL         Diagnostic #     31  VVEL     exists 
 Computing Diagnostic #     31  VVEL         Counter:       4   Parms: VVR     MR      
           Vector  Mate for  VVEL         Diagnostic #     30  UVEL     exists 
 Computing Diagnostic #    214  SIarea       Counter:       4   Parms: SM      M1      
 Computing Diagnostic #    217  SIheff       Counter:       4   Parms: SM      M1      
 Computing Diagnostic #    219  SIhsnow      Counter:       4   Parms: SM      M1      
 Computing Diagnostic #     83  sIceLoad     Counter:       4   Parms: SM      U1      
 Computing Diagnostic #    223  SIuice       Counter:       4   Parms: UU      M1      
           Vector  Mate for  SIuice       Diagnostic #    224  SIvice   exists 
 Computing Diagnostic #    224  SIvice       Counter:       4   Parms: VV      M1      
           Vector  Mate for  SIvice       Diagnostic #    223  SIuice   exists 
 Computing Diagnostic #    225  SItaux       Counter:       4   Parms: UU      U1      
           Vector  Mate for  SItaux       Diagnostic #    226  SItauy   exists 
 Computing Diagnostic #    226  SItauy       Counter:       4   Parms: VV      U1      
           Vector  Mate for  SItauy       Diagnostic #    225  SItaux   exists 
 Computing Diagnostic #    285  SIareaN      Counter:       4   Parms: SM      MX      
 Computing Diagnostic #    284  SIheffN      Counter:       4   Parms: SM      MX      
 Computing Diagnostic #    286  SIhsnowN     Counter:       4   Parms: SM      MX      
 Compute Stats, Diag. #    214  SIarea    vol(   0 ): 3.580E+14  Parms: SM      M1      
 Compute Stats, Diag. #    217  SIheff    vol(   0 ): 3.580E+14  Parms: SM      M1      
 Compute Stats, Diag. #    219  SIhsnow   vol(   0 ): 3.580E+14  Parms: SM      M1      
 Compute Stats, Diag. #     83  sIceLoad  vol(   0 ): 3.580E+14  Parms: SM      U1      
 Compute Stats, Diag. #    223  SIuice    vol(   0 ): 3.513E+14  Parms: UU      M1      
 Compute Stats, Diag. #    224  SIvice    vol(   0 ): 3.508E+14  Parms: VV      M1      
 Compute Stats, Diag. #    225  SItaux    vol(   0 ): 3.513E+14  Parms: UU      U1      
 Compute Stats, Diag. #    226  SItauy    vol(   0 ): 3.508E+14  Parms: VV      U1      
 cg2d: Sum(rhs),rhsMax =  -4.16775878389466E+01  2.84795915348194E-01
 Compute Stats, Diag. #    214  SIarea    vol(   0 ): 3.580E+14  Parms: SM      M1      
 Compute Stats, Diag. #    217  SIheff    vol(   0 ): 3.580E+14  Parms: SM      M1      
 Compute Stats, Diag. #    219  SIhsnow   vol(   0 ): 3.580E+14  Parms: SM      M1      
 Compute Stats, Diag. #     83  sIceLoad  vol(   0 ): 3.580E+14  Parms: SM      U1      
 Compute Stats, Diag. #    223  SIuice    vol(   0 ): 3.513E+14  Parms: UU      M1      
 Compute Stats, Diag. #    224  SIvice    vol(   0 ): 3.508E+14  Parms: VV      M1      
 Compute Stats, Diag. #    225  SItaux    vol(   0 ): 3.513E+14  Parms: UU      U1      
 Compute Stats, Diag. #    226  SItauy    vol(   0 ): 3.508E+14  Parms: VV      U1      
 cg2d: Sum(rhs),rhsMax =  -4.17485901598889E+01  2.84843563602371E-01
 Compute Stats, Diag. #    214  SIarea    vol(   0 ): 3.580E+14  Parms: SM      M1      
 Compute Stats, Diag. #    217  SIheff    vol(   0 ): 3.580E+14  Parms: SM      M1      
 Compute Stats, Diag. #    219  SIhsnow   vol(   0 ): 3.580E+14  Parms: SM      M1      
 Compute Stats, Diag. #     83  sIceLoad  vol(   0 ): 3.580E+14  Parms: SM      U1      
 Compute Stats, Diag. #    223  SIuice    vol(   0 ): 3.513E+14  Parms: UU      M1      
 Compute Stats, Diag. #    224  SIvice    vol(   0 ): 3.508E+14  Parms: VV      M1      
 Compute Stats, Diag. #    225  SItaux    vol(   0 ): 3.513E+14  Parms: UU      U1      
 Compute Stats, Diag. #    226  SItauy    vol(   0 ): 3.508E+14  Parms: VV      U1      
 cg2d: Sum(rhs),rhsMax =  -4.18205617005437E+01  2.84888773464277E-01
 Compute Stats, Diag. #    214  SIarea    vol(   0 ): 3.580E+14  Parms: SM      M1      
 Compute Stats, Diag. #    217  SIheff    vol(   0 ): 3.580E+14  Parms: SM      M1      
 Compute Stats, Diag. #    219  SIhsnow   vol(   0 ): 3.580E+14  Parms: SM      M1      
 Compute Stats, Diag. #     83  sIceLoad  vol(   0 ): 3.580E+14  Parms: SM      U1      
 Compute Stats, Diag. #    223  SIuice    vol(   0 ): 3.513E+14  Parms: UU      M1      
 Compute Stats, Diag. #    224  SIvice    vol(   0 ): 3.508E+14  Parms: VV      M1      
 Compute Stats, Diag. #    225  SItaux    vol(   0 ): 3.513E+14  Parms: UU      U1      
 Compute Stats, Diag. #    226  SItauy    vol(   0 ): 3.508E+14  Parms: VV      U1      
 cg2d: Sum(rhs),rhsMax =  -4.18803603654704E+01  2.84931654956006E-01
(PID.TID 0000.0001)      cg2d_init_res =   4.71384260342901E-02
(PID.TID 0000.0001)      cg2d_iters(min,last) =      -1      23
(PID.TID 0000.0001)      cg2d_last_res =   2.76018176166815E-05
(PID.TID 0000.0001) // =======================================================
(PID.TID 0000.0001) // Begin MONITOR dynamic field statistics
(PID.TID 0000.0001) // =======================================================
(PID.TID 0000.0001) %MON time_tsnumber                =                  1064
(PID.TID 0000.0001) %MON time_secondsf                =   9.5760000000000E+05
(PID.TID 0000.0001) %MON dynstat_eta_max              =   1.0073925440631E+00
(PID.TID 0000.0001) %MON dynstat_eta_min              =  -1.8012276008047E+00
(PID.TID 0000.0001) %MON dynstat_eta_mean             =   1.3248095553559E-03
(PID.TID 0000.0001) %MON dynstat_eta_sd               =   6.2216894083217E-01
(PID.TID 0000.0001) %MON dynstat_eta_del2             =   5.0996111029746E-05
(PID.TID 0000.0001) %MON dynstat_uvel_max             =   6.8395349567842E-01
(PID.TID 0000.0001) %MON dynstat_uvel_min             =  -9.0362754412934E-01
(PID.TID 0000.0001) %MON dynstat_uvel_mean            =   1.3187812973428E-03
(PID.TID 0000.0001) %MON dynstat_uvel_sd              =   1.7868921203542E-02
(PID.TID 0000.0001) %MON dynstat_uvel_del2            =   6.9804520403978E-06
(PID.TID 0000.0001) %MON dynstat_vvel_max             =   6.0170594405917E-01
(PID.TID 0000.0001) %MON dynstat_vvel_min             =  -1.0142985264373E+00
(PID.TID 0000.0001) %MON dynstat_vvel_mean            =   1.0047256384150E-03
(PID.TID 0000.0001) %MON dynstat_vvel_sd              =   1.9327089696368E-02
(PID.TID 0000.0001) %MON dynstat_vvel_del2            =   7.1832104723548E-06
(PID.TID 0000.0001) %MON dynstat_wvel_max             =   3.0593365726035E-04
(PID.TID 0000.0001) %MON dynstat_wvel_min             =  -7.7558215673037E-04
(PID.TID 0000.0001) %MON dynstat_wvel_mean            =   2.0516826028986E-09
(PID.TID 0000.0001) %MON dynstat_wvel_sd              =   1.5548090715748E-05
(PID.TID 0000.0001) %MON dynstat_wvel_del2            =   1.3573786745673E-08
(PID.TID 0000.0001) %MON dynstat_theta_max            =   3.1659939478857E+01
(PID.TID 0000.0001) %MON dynstat_theta_min            =  -2.0396364006427E+00
(PID.TID 0000.0001) %MON dynstat_theta_mean           =   3.5901354331315E+00
(PID.TID 0000.0001) %MON dynstat_theta_sd             =   4.4368066997020E+00
(PID.TID 0000.0001) %MON dynstat_theta_del2           =   9.0176757754473E-05
(PID.TID 0000.0001) %MON dynstat_salt_max             =   4.0711545745844E+01
(PID.TID 0000.0001) %MON dynstat_salt_min             =   4.8159571032758E+00
(PID.TID 0000.0001) %MON dynstat_salt_mean            =   3.4725559986952E+01
(PID.TID 0000.0001) %MON dynstat_salt_sd              =   3.7712055269299E-01
(PID.TID 0000.0001) %MON dynstat_salt_del2            =   3.5271445685123E-05
(PID.TID 0000.0001) %MON dynstat_sst_max              =   3.1659928826066E+01
(PID.TID 0000.0001) %MON dynstat_sst_min              =  -1.8038357253910E+00
(PID.TID 0000.0001) %MON dynstat_sst_mean             =   1.8456467627395E+01
(PID.TID 0000.0001) %MON dynstat_sst_sd               =   1.0292441684056E+01
(PID.TID 0000.0001) %MON dynstat_sst_del2             =   7.8990808882541E-04
(PID.TID 0000.0001) %MON dynstat_sss_max              =   3.9098063197381E+01
(PID.TID 0000.0001) %MON dynstat_sss_min              =   4.8159571032758E+00
(PID.TID 0000.0001) %MON dynstat_sss_mean             =   3.4701123003494E+01
(PID.TID 0000.0001) %MON dynstat_sss_sd               =   1.1835474848691E+00
(PID.TID 0000.0001) %MON dynstat_sss_del2             =   1.0715196045840E-03
(PID.TID 0000.0001) %MON forcing_qnet_max             =   8.0273590087891E+02
(PID.TID 0000.0001) %MON forcing_qnet_min             =  -8.5037255859375E+02
(PID.TID 0000.0001) %MON forcing_qnet_mean            =  -3.1651840652357E+01
(PID.TID 0000.0001) %MON forcing_qnet_sd              =   2.1649946821744E+02
(PID.TID 0000.0001) %MON forcing_qnet_del2            =   3.1670387690736E-01
(PID.TID 0000.0001) %MON forcing_qsw_max              =   0.0000000000000E+00
(PID.TID 0000.0001) %MON forcing_qsw_min              =  -1.0949549649516E+02
(PID.TID 0000.0001) %MON forcing_qsw_mean             =  -2.2967976245265E+01
(PID.TID 0000.0001) %MON forcing_qsw_sd               =   3.1452247795433E+01
(PID.TID 0000.0001) %MON forcing_qsw_del2             =   1.8925406702756E-02
(PID.TID 0000.0001) %MON forcing_empmr_max            =   1.0283745359629E-03
(PID.TID 0000.0001) %MON forcing_empmr_min            =  -8.8470697402954E-02
(PID.TID 0000.0001) %MON forcing_empmr_mean           =  -2.1627553509203E-06
(PID.TID 0000.0001) %MON forcing_empmr_sd             =   3.1300253938068E-04
(PID.TID 0000.0001) %MON forcing_empmr_del2           =   3.1589611641589E-06
(PID.TID 0000.0001) %MON forcing_fu_max               =   9.2291945219040E-01
(PID.TID 0000.0001) %MON forcing_fu_min               =  -1.0286053419113E+00
(PID.TID 0000.0001) %MON forcing_fu_mean              =   2.2792212286188E-03
(PID.TID 0000.0001) %MON forcing_fu_sd                =   1.0566749319880E-01
(PID.TID 0000.0001) %MON forcing_fu_del2              =   1.4113618401023E-04
(PID.TID 0000.0001) %MON forcing_fv_max               =   6.4610889554023E-01
(PID.TID 0000.0001) %MON forcing_fv_min               =  -9.0749043226242E-01
(PID.TID 0000.0001) %MON forcing_fv_mean              =  -9.8219755817448E-03
(PID.TID 0000.0001) %MON forcing_fv_sd                =   1.0602922814956E-01
(PID.TID 0000.0001) %MON forcing_fv_del2              =   1.3866011798954E-04
(PID.TID 0000.0001) %MON trAdv_CFL_u_max              =   1.1445360400642E-02
(PID.TID 0000.0001) %MON trAdv_CFL_v_max              =   1.2930201455415E-02
(PID.TID 0000.0001) %MON trAdv_CFL_w_max              =   2.0517110354117E-02
(PID.TID 0000.0001) %MON advcfl_uvel_max              =   9.9118357202950E-03
(PID.TID 0000.0001) %MON advcfl_vvel_max              =   1.2842715314338E-02
(PID.TID 0000.0001) %MON advcfl_wvel_max              =   2.2727223512832E-02
(PID.TID 0000.0001) %MON advcfl_W_hf_max              =   2.3835788312355E-02
(PID.TID 0000.0001) %MON pe_b_mean                    =   5.0918634339278E-04
(PID.TID 0000.0001) %MON ke_max                       =   5.3034817697632E-01
(PID.TID 0000.0001) %MON ke_mean                      =   3.3540767547871E-04
(PID.TID 0000.0001) %MON ke_vol                       =   1.3349983505622E+18
(PID.TID 0000.0001) %MON vort_r_min                   =  -1.7534519551101E-05
(PID.TID 0000.0001) %MON vort_r_max                   =   2.0717743053814E-05
(PID.TID 0000.0001) %MON vort_a_mean                  =  -1.9727864647440E-05
(PID.TID 0000.0001) %MON vort_a_sd                    =   7.4542966645204E-05
(PID.TID 0000.0001) %MON vort_p_mean                  =  -2.1760525815573E-05
(PID.TID 0000.0001) %MON vort_p_sd                    =   9.7246434538172E-05
(PID.TID 0000.0001) %MON surfExpan_theta_mean         =   2.3068397650741E-07
(PID.TID 0000.0001) %MON surfExpan_salt_mean          =   6.2523881465761E-08
(PID.TID 0000.0001) // =======================================================
(PID.TID 0000.0001) // End MONITOR dynamic field statistics
(PID.TID 0000.0001) // =======================================================
(PID.TID 0000.0001) // =======================================================
(PID.TID 0000.0001) // Begin MONITOR SEAICE statistics
(PID.TID 0000.0001) // =======================================================
(PID.TID 0000.0001) %MON seaice_tsnumber              =                  1064
(PID.TID 0000.0001) %MON seaice_time_sec              =   9.5760000000000E+05
(PID.TID 0000.0001) %MON seaice_uice_max              =   4.0000000000000E-01
(PID.TID 0000.0001) %MON seaice_uice_min              =  -4.0000000000000E-01
(PID.TID 0000.0001) %MON seaice_uice_mean             =  -8.3054598624025E-03
(PID.TID 0000.0001) %MON seaice_uice_sd               =   1.9802383574176E-01
(PID.TID 0000.0001) %MON seaice_uice_del2             =   2.2931571122150E-04
(PID.TID 0000.0001) %MON seaice_vice_max              =   4.0000000000000E-01
(PID.TID 0000.0001) %MON seaice_vice_min              =  -4.0000000000000E-01
(PID.TID 0000.0001) %MON seaice_vice_mean             =  -2.1960776359499E-02
(PID.TID 0000.0001) %MON seaice_vice_sd               =   2.1302038025672E-01
(PID.TID 0000.0001) %MON seaice_vice_del2             =   2.3932563818061E-04
(PID.TID 0000.0001) %MON seaice_area_max              =   9.9999999813735E-01
(PID.TID 0000.0001) %MON seaice_area_min              =   0.0000000000000E+00
(PID.TID 0000.0001) %MON seaice_area_mean             =   6.4806994945452E-02
(PID.TID 0000.0001) %MON seaice_area_sd               =   2.2800095550254E-01
(PID.TID 0000.0001) %MON seaice_area_del2             =   3.7619223042193E-04
(PID.TID 0000.0001) %MON seaice_heff_max              =   2.4905659339274E+01
(PID.TID 0000.0001) %MON seaice_heff_min              =   0.0000000000000E+00
(PID.TID 0000.0001) %MON seaice_heff_mean             =   2.1159143616254E-01
(PID.TID 0000.0001) %MON seaice_heff_sd               =   1.0656298237964E+00
(PID.TID 0000.0001) %MON seaice_heff_del2             =   3.8167429125597E-03
(PID.TID 0000.0001) %MON seaice_hsnow_max             =   8.2263837589708E+00
(PID.TID 0000.0001) %MON seaice_hsnow_min             =   0.0000000000000E+00
(PID.TID 0000.0001) %MON seaice_hsnow_mean            =   2.3845083102294E-02
(PID.TID 0000.0001) %MON seaice_hsnow_sd              =   1.5574973550182E-01
(PID.TID 0000.0001) %MON seaice_hsnow_del2            =   1.2348005435837E-03
(PID.TID 0000.0001) // =======================================================
(PID.TID 0000.0001) // End MONITOR SEAICE statistics
(PID.TID 0000.0001) // =======================================================
 Computing Diagnostic #     86  oceQnet      Counter:       4   Parms: SM      U1      
 Computing Diagnostic #     87  oceQsw       Counter:       4   Parms: SM      U1      
 Computing Diagnostic #     84  oceFWflx     Counter:       4   Parms: SM      U1      
 Computing Diagnostic #     85  oceSflux     Counter:       4   Parms: SM      U1      
 Computing Diagnostic #     80  oceTAUX      Counter:       4   Parms: UU      U1      
           Vector  Mate for  oceTAUX      Diagnostic #     81  oceTAUY  exists 
 Computing Diagnostic #     81  oceTAUY      Counter:       4   Parms: VV      U1      
           Vector  Mate for  oceTAUY      Diagnostic #     80  oceTAUX  exists 
 Computing Diagnostic #     26  THETA        Counter:       4   Parms: SMR     MR      
 Computing Diagnostic #     27  SALT         Counter:       4   Parms: SMR     MR      
 Computing Diagnostic #     30  UVEL         Counter:       4   Parms: UUR     MR      
           Vector  Mate for  UVEL         Diagnostic #     31  VVEL     exists 
 Computing Diagnostic #     31  VVEL         Counter:       4   Parms: VVR     MR      
           Vector  Mate for  VVEL         Diagnostic #     30  UVEL     exists 
 Computing Diagnostic #    214  SIarea       Counter:       4   Parms: SM      M1      
 Computing Diagnostic #    217  SIheff       Counter:       4   Parms: SM      M1      
 Computing Diagnostic #    219  SIhsnow      Counter:       4   Parms: SM      M1      
 Computing Diagnostic #     83  sIceLoad     Counter:       4   Parms: SM      U1      
 Computing Diagnostic #    223  SIuice       Counter:       4   Parms: UU      M1      
           Vector  Mate for  SIuice       Diagnostic #    224  SIvice   exists 
 Computing Diagnostic #    224  SIvice       Counter:       4   Parms: VV      M1      
           Vector  Mate for  SIvice       Diagnostic #    223  SIuice   exists 
 Computing Diagnostic #    225  SItaux       Counter:       4   Parms: UU      U1      
           Vector  Mate for  SItaux       Diagnostic #    226  SItauy   exists 
 Computing Diagnostic #    226  SItauy       Counter:       4   Parms: VV      U1      
           Vector  Mate for  SItauy       Diagnostic #    225  SItaux   exists 
 Computing Diagnostic #    285  SIareaN      Counter:       4   Parms: SM      MX      
 Computing Diagnostic #    284  SIheffN      Counter:       4   Parms: SM      MX      
 Computing Diagnostic #    286  SIhsnowN     Counter:       4   Parms: SM      MX      
 Compute Stats, Diag. #    214  SIarea    vol(   0 ): 3.580E+14  Parms: SM      M1      
 Compute Stats, Diag. #    217  SIheff    vol(   0 ): 3.580E+14  Parms: SM      M1      
 Compute Stats, Diag. #    219  SIhsnow   vol(   0 ): 3.580E+14  Parms: SM      M1      
 Compute Stats, Diag. #     83  sIceLoad  vol(   0 ): 3.580E+14  Parms: SM      U1      
 Compute Stats, Diag. #    223  SIuice    vol(   0 ): 3.513E+14  Parms: UU      M1      
 Compute Stats, Diag. #    224  SIvice    vol(   0 ): 3.508E+14  Parms: VV      M1      
 Compute Stats, Diag. #    225  SItaux    vol(   0 ): 3.513E+14  Parms: UU      U1      
 Compute Stats, Diag. #    226  SItauy    vol(   0 ): 3.508E+14  Parms: VV      U1      
 cg2d: Sum(rhs),rhsMax =  -4.19474585884043E+01  2.84972356286537E-01
 Compute Stats, Diag. #    214  SIarea    vol(   0 ): 3.580E+14  Parms: SM      M1      
 Compute Stats, Diag. #    217  SIheff    vol(   0 ): 3.580E+14  Parms: SM      M1      
 Compute Stats, Diag. #    219  SIhsnow   vol(   0 ): 3.580E+14  Parms: SM      M1      
 Compute Stats, Diag. #     83  sIceLoad  vol(   0 ): 3.580E+14  Parms: SM      U1      
 Compute Stats, Diag. #    223  SIuice    vol(   0 ): 3.513E+14  Parms: UU      M1      
 Compute Stats, Diag. #    224  SIvice    vol(   0 ): 3.508E+14  Parms: VV      M1      
 Compute Stats, Diag. #    225  SItaux    vol(   0 ): 3.513E+14  Parms: UU      U1      
 Compute Stats, Diag. #    226  SItauy    vol(   0 ): 3.508E+14  Parms: VV      U1      
 cg2d: Sum(rhs),rhsMax =  -4.20149197098233E+01  2.85010908183152E-01
 Compute Stats, Diag. #    214  SIarea    vol(   0 ): 3.580E+14  Parms: SM      M1      
 Compute Stats, Diag. #    217  SIheff    vol(   0 ): 3.580E+14  Parms: SM      M1      
 Compute Stats, Diag. #    219  SIhsnow   vol(   0 ): 3.580E+14  Parms: SM      M1      
 Compute Stats, Diag. #     83  sIceLoad  vol(   0 ): 3.580E+14  Parms: SM      U1      
 Compute Stats, Diag. #    223  SIuice    vol(   0 ): 3.513E+14  Parms: UU      M1      
 Compute Stats, Diag. #    224  SIvice    vol(   0 ): 3.508E+14  Parms: VV      M1      
 Compute Stats, Diag. #    225  SItaux    vol(   0 ): 3.513E+14  Parms: UU      U1      
 Compute Stats, Diag. #    226  SItauy    vol(   0 ): 3.508E+14  Parms: VV      U1      
 cg2d: Sum(rhs),rhsMax =  -4.20738654503457E+01  2.85047264335060E-01
 Compute Stats, Diag. #    214  SIarea    vol(   0 ): 3.580E+14  Parms: SM      M1      
 Compute Stats, Diag. #    217  SIheff    vol(   0 ): 3.580E+14  Parms: SM      M1      
 Compute Stats, Diag. #    219  SIhsnow   vol(   0 ): 3.580E+14  Parms: SM      M1      
 Compute Stats, Diag. #     83  sIceLoad  vol(   0 ): 3.580E+14  Parms: SM      U1      
 Compute Stats, Diag. #    223  SIuice    vol(   0 ): 3.513E+14  Parms: UU      M1      
 Compute Stats, Diag. #    224  SIvice    vol(   0 ): 3.508E+14  Parms: VV      M1      
 Compute Stats, Diag. #    225  SItaux    vol(   0 ): 3.513E+14  Parms: UU      U1      
 Compute Stats, Diag. #    226  SItauy    vol(   0 ): 3.508E+14  Parms: VV      U1      
 cg2d: Sum(rhs),rhsMax =  -4.21314041863937E+01  2.85080288699822E-01
 Computing Diagnostic #     86  oceQnet      Counter:       4   Parms: SM      U1      
 Computing Diagnostic #     87  oceQsw       Counter:       4   Parms: SM      U1      
 Computing Diagnostic #     84  oceFWflx     Counter:       4   Parms: SM      U1      
 Computing Diagnostic #     85  oceSflux     Counter:       4   Parms: SM      U1      
 Computing Diagnostic #     80  oceTAUX      Counter:       4   Parms: UU      U1      
           Vector  Mate for  oceTAUX      Diagnostic #     81  oceTAUY  exists 
 Computing Diagnostic #     81  oceTAUY      Counter:       4   Parms: VV      U1      
           Vector  Mate for  oceTAUY      Diagnostic #     80  oceTAUX  exists 
 Computing Diagnostic #     26  THETA        Counter:       4   Parms: SMR     MR      
 Computing Diagnostic #     27  SALT         Counter:       4   Parms: SMR     MR      
 Computing Diagnostic #     30  UVEL         Counter:       4   Parms: UUR     MR      
           Vector  Mate for  UVEL         Diagnostic #     31  VVEL     exists 
 Computing Diagnostic #     31  VVEL         Counter:       4   Parms: VVR     MR      
           Vector  Mate for  VVEL         Diagnostic #     30  UVEL     exists 
 Computing Diagnostic #    214  SIarea       Counter:       4   Parms: SM      M1      
 Computing Diagnostic #    217  SIheff       Counter:       4   Parms: SM      M1      
 Computing Diagnostic #    219  SIhsnow      Counter:       4   Parms: SM      M1      
 Computing Diagnostic #     83  sIceLoad     Counter:       4   Parms: SM      U1      
 Computing Diagnostic #    223  SIuice       Counter:       4   Parms: UU      M1      
           Vector  Mate for  SIuice       Diagnostic #    224  SIvice   exists 
 Computing Diagnostic #    224  SIvice       Counter:       4   Parms: VV      M1      
           Vector  Mate for  SIvice       Diagnostic #    223  SIuice   exists 
 Computing Diagnostic #    225  SItaux       Counter:       4   Parms: UU      U1      
           Vector  Mate for  SItaux       Diagnostic #    226  SItauy   exists 
 Computing Diagnostic #    226  SItauy       Counter:       4   Parms: VV      U1      
           Vector  Mate for  SItauy       Diagnostic #    225  SItaux   exists 
 Computing Diagnostic #    285  SIareaN      Counter:       4   Parms: SM      MX      
 Computing Diagnostic #    284  SIheffN      Counter:       4   Parms: SM      MX      
 Computing Diagnostic #    286  SIhsnowN     Counter:       4   Parms: SM      MX      
 Compute Stats, Diag. #    214  SIarea    vol(   0 ): 3.580E+14  Parms: SM      M1      
 Compute Stats, Diag. #    217  SIheff    vol(   0 ): 3.580E+14  Parms: SM      M1      
 Compute Stats, Diag. #    219  SIhsnow   vol(   0 ): 3.580E+14  Parms: SM      M1      
 Compute Stats, Diag. #     83  sIceLoad  vol(   0 ): 3.580E+14  Parms: SM      U1      
 Compute Stats, Diag. #    223  SIuice    vol(   0 ): 3.513E+14  Parms: UU      M1      
 Compute Stats, Diag. #    224  SIvice    vol(   0 ): 3.508E+14  Parms: VV      M1      
 Compute Stats, Diag. #    225  SItaux    vol(   0 ): 3.513E+14  Parms: UU      U1      
 Compute Stats, Diag. #    226  SItauy    vol(   0 ): 3.508E+14  Parms: VV      U1      
 cg2d: Sum(rhs),rhsMax =  -4.21924761009294E+01  2.85120412459455E-01
 Compute Stats, Diag. #    214  SIarea    vol(   0 ): 3.580E+14  Parms: SM      M1      
 Compute Stats, Diag. #    217  SIheff    vol(   0 ): 3.580E+14  Parms: SM      M1      
 Compute Stats, Diag. #    219  SIhsnow   vol(   0 ): 3.580E+14  Parms: SM      M1      
 Compute Stats, Diag. #     83  sIceLoad  vol(   0 ): 3.580E+14  Parms: SM      U1      
 Compute Stats, Diag. #    223  SIuice    vol(   0 ): 3.513E+14  Parms: UU      M1      
 Compute Stats, Diag. #    224  SIvice    vol(   0 ): 3.508E+14  Parms: VV      M1      
 Compute Stats, Diag. #    225  SItaux    vol(   0 ): 3.513E+14  Parms: UU      U1      
 Compute Stats, Diag. #    226  SItauy    vol(   0 ): 3.508E+14  Parms: VV      U1      
 cg2d: Sum(rhs),rhsMax =  -4.22440302760643E+01  2.85161296226185E-01
 Compute Stats, Diag. #    214  SIarea    vol(   0 ): 3.580E+14  Parms: SM      M1      
 Compute Stats, Diag. #    217  SIheff    vol(   0 ): 3.580E+14  Parms: SM      M1      
 Compute Stats, Diag. #    219  SIhsnow   vol(   0 ): 3.580E+14  Parms: SM      M1      
 Compute Stats, Diag. #     83  sIceLoad  vol(   0 ): 3.580E+14  Parms: SM      U1      
 Compute Stats, Diag. #    223  SIuice    vol(   0 ): 3.513E+14  Parms: UU      M1      
 Compute Stats, Diag. #    224  SIvice    vol(   0 ): 3.508E+14  Parms: VV      M1      
 Compute Stats, Diag. #    225  SItaux    vol(   0 ): 3.513E+14  Parms: UU      U1      
 Compute Stats, Diag. #    226  SItauy    vol(   0 ): 3.508E+14  Parms: VV      U1      
 cg2d: Sum(rhs),rhsMax =  -4.22939603693294E+01  2.85199580936722E-01
 Compute Stats, Diag. #    214  SIarea    vol(   0 ): 3.580E+14  Parms: SM      M1      
 Compute Stats, Diag. #    217  SIheff    vol(   0 ): 3.580E+14  Parms: SM      M1      
 Compute Stats, Diag. #    219  SIhsnow   vol(   0 ): 3.580E+14  Parms: SM      M1      
 Compute Stats, Diag. #     83  sIceLoad  vol(   0 ): 3.580E+14  Parms: SM      U1      
 Compute Stats, Diag. #    223  SIuice    vol(   0 ): 3.513E+14  Parms: UU      M1      
 Compute Stats, Diag. #    224  SIvice    vol(   0 ): 3.508E+14  Parms: VV      M1      
 Compute Stats, Diag. #    225  SItaux    vol(   0 ): 3.513E+14  Parms: UU      U1      
 Compute Stats, Diag. #    226  SItauy    vol(   0 ): 3.508E+14  Parms: VV      U1      
 cg2d: Sum(rhs),rhsMax =  -4.23453520658885E+01  2.85246391197248E-01
(PID.TID 0000.0001)      cg2d_init_res =   4.66081604060532E-02
(PID.TID 0000.0001)      cg2d_iters(min,last) =      -1      22
(PID.TID 0000.0001)      cg2d_last_res =   2.60626904368664E-05
(PID.TID 0000.0001) // =======================================================
(PID.TID 0000.0001) // Begin MONITOR dynamic field statistics
(PID.TID 0000.0001) // =======================================================
(PID.TID 0000.0001) %MON time_tsnumber                =                  1072
(PID.TID 0000.0001) %MON time_secondsf                =   9.6480000000000E+05
(PID.TID 0000.0001) %MON dynstat_eta_max              =   1.0080956068099E+00
(PID.TID 0000.0001) %MON dynstat_eta_min              =  -1.8024278051853E+00
(PID.TID 0000.0001) %MON dynstat_eta_mean             =   1.3395187279250E-03
(PID.TID 0000.0001) %MON dynstat_eta_sd               =   6.2233202289944E-01
(PID.TID 0000.0001) %MON dynstat_eta_del2             =   5.1237451877612E-05
(PID.TID 0000.0001) %MON dynstat_uvel_max             =   6.8257598514831E-01
(PID.TID 0000.0001) %MON dynstat_uvel_min             =  -9.1022280039635E-01
(PID.TID 0000.0001) %MON dynstat_uvel_mean            =   1.3175145768370E-03
(PID.TID 0000.0001) %MON dynstat_uvel_sd              =   1.7884332073291E-02
(PID.TID 0000.0001) %MON dynstat_uvel_del2            =   6.9704380310437E-06
(PID.TID 0000.0001) %MON dynstat_vvel_max             =   6.3392984169371E-01
(PID.TID 0000.0001) %MON dynstat_vvel_min             =  -1.0258168636406E+00
(PID.TID 0000.0001) %MON dynstat_vvel_mean            =   9.9947557909769E-04
(PID.TID 0000.0001) %MON dynstat_vvel_sd              =   1.9330256002581E-02
(PID.TID 0000.0001) %MON dynstat_vvel_del2            =   7.1831407476011E-06
(PID.TID 0000.0001) %MON dynstat_wvel_max             =   3.0378577060237E-04
(PID.TID 0000.0001) %MON dynstat_wvel_min             =  -7.7700908380134E-04
(PID.TID 0000.0001) %MON dynstat_wvel_mean            =   2.3572419505023E-09
(PID.TID 0000.0001) %MON dynstat_wvel_sd              =   1.5447029495317E-05
(PID.TID 0000.0001) %MON dynstat_wvel_del2            =   1.3606589479625E-08
(PID.TID 0000.0001) %MON dynstat_theta_max            =   3.1652556943931E+01
(PID.TID 0000.0001) %MON dynstat_theta_min            =  -2.0396320656439E+00
(PID.TID 0000.0001) %MON dynstat_theta_mean           =   3.5901460834681E+00
(PID.TID 0000.0001) %MON dynstat_theta_sd             =   4.4368743360780E+00
(PID.TID 0000.0001) %MON dynstat_theta_del2           =   9.0131268813732E-05
(PID.TID 0000.0001) %MON dynstat_salt_max             =   4.0711546093230E+01
(PID.TID 0000.0001) %MON dynstat_salt_min             =   5.0221032105042E+00
(PID.TID 0000.0001) %MON dynstat_salt_mean            =   3.4725559851743E+01
(PID.TID 0000.0001) %MON dynstat_salt_sd              =   3.7712226558703E-01
(PID.TID 0000.0001) %MON dynstat_salt_del2            =   3.5253277172220E-05
(PID.TID 0000.0001) %MON dynstat_sst_max              =   3.1652556943931E+01
(PID.TID 0000.0001) %MON dynstat_sst_min              =  -1.8039520537790E+00
(PID.TID 0000.0001) %MON dynstat_sst_mean             =   1.8459003004306E+01
(PID.TID 0000.0001) %MON dynstat_sst_sd               =   1.0294712620300E+01
(PID.TID 0000.0001) %MON dynstat_sst_del2             =   7.9123792987986E-04
(PID.TID 0000.0001) %MON dynstat_sss_max              =   3.9098057943172E+01
(PID.TID 0000.0001) %MON dynstat_sss_min              =   5.0221032105042E+00
(PID.TID 0000.0001) %MON dynstat_sss_mean             =   3.4701173126697E+01
(PID.TID 0000.0001) %MON dynstat_sss_sd               =   1.1837467097402E+00
(PID.TID 0000.0001) %MON dynstat_sss_del2             =   1.0694555742479E-03
(PID.TID 0000.0001) %MON forcing_qnet_max             =   6.6494519042969E+02
(PID.TID 0000.0001) %MON forcing_qnet_min             =  -6.5390157120666E+02
(PID.TID 0000.0001) %MON forcing_qnet_mean            =  -1.4962151097516E+01
(PID.TID 0000.0001) %MON forcing_qnet_sd              =   2.0187534640081E+02
(PID.TID 0000.0001) %MON forcing_qnet_del2            =   3.1081842901883E-01
(PID.TID 0000.0001) %MON forcing_qsw_max              =   0.0000000000000E+00
(PID.TID 0000.0001) %MON forcing_qsw_min              =  -1.1006291532631E+02
(PID.TID 0000.0001) %MON forcing_qsw_mean             =  -2.1448785219987E+01
(PID.TID 0000.0001) %MON forcing_qsw_sd               =   3.0426319403712E+01
(PID.TID 0000.0001) %MON forcing_qsw_del2             =   2.0773680503250E-02
(PID.TID 0000.0001) %MON forcing_empmr_max            =   1.6571723390371E-03
(PID.TID 0000.0001) %MON forcing_empmr_min            =  -4.1982538998127E-02
(PID.TID 0000.0001) %MON forcing_empmr_mean           =  -1.8586981307697E-06
(PID.TID 0000.0001) %MON forcing_empmr_sd             =   2.4522467482381E-04
(PID.TID 0000.0001) %MON forcing_empmr_del2           =   2.3796906870834E-06
(PID.TID 0000.0001) %MON forcing_fu_max               =   8.5665947198868E-01
(PID.TID 0000.0001) %MON forcing_fu_min               =  -9.0909153223038E-01
(PID.TID 0000.0001) %MON forcing_fu_mean              =   2.3189018306287E-03
(PID.TID 0000.0001) %MON forcing_fu_sd                =   1.0545623530246E-01
(PID.TID 0000.0001) %MON forcing_fu_del2              =   1.4023693200327E-04
(PID.TID 0000.0001) %MON forcing_fv_max               =   6.4469370245934E-01
(PID.TID 0000.0001) %MON forcing_fv_min               =  -9.5375999808311E-01
(PID.TID 0000.0001) %MON forcing_fv_mean              =  -9.7591673988127E-03
(PID.TID 0000.0001) %MON forcing_fv_sd                =   1.0522653566667E-01
(PID.TID 0000.0001) %MON forcing_fv_del2              =   1.4018122098972E-04
(PID.TID 0000.0001) %MON trAdv_CFL_u_max              =   1.1446090081694E-02
(PID.TID 0000.0001) %MON trAdv_CFL_v_max              =   1.4490240181150E-02
(PID.TID 0000.0001) %MON trAdv_CFL_w_max              =   2.0859684117935E-02
(PID.TID 0000.0001) %MON advcfl_uvel_max              =   1.0052637258772E-02
(PID.TID 0000.0001) %MON advcfl_vvel_max              =   1.3530497025196E-02
(PID.TID 0000.0001) %MON advcfl_wvel_max              =   2.3054089077955E-02
(PID.TID 0000.0001) %MON advcfl_W_hf_max              =   2.4178355327689E-02
(PID.TID 0000.0001) %MON pe_b_mean                    =   5.0945336111963E-04
(PID.TID 0000.0001) %MON ke_max                       =   5.4028538485176E-01
(PID.TID 0000.0001) %MON ke_mean                      =   3.3572567299333E-04
(PID.TID 0000.0001) %MON ke_vol                       =   1.3349983559235E+18
(PID.TID 0000.0001) %MON vort_r_min                   =  -1.8608718273182E-05
(PID.TID 0000.0001) %MON vort_r_max                   =   2.1884613669155E-05
(PID.TID 0000.0001) %MON vort_a_mean                  =  -1.9727864647440E-05
(PID.TID 0000.0001) %MON vort_a_sd                    =   7.4542967936241E-05
(PID.TID 0000.0001) %MON vort_p_mean                  =  -2.1760525751047E-05
(PID.TID 0000.0001) %MON vort_p_sd                    =   9.7246511115225E-05
(PID.TID 0000.0001) %MON surfExpan_theta_mean         =   2.1648359390275E-07
(PID.TID 0000.0001) %MON surfExpan_salt_mean          =   4.4895140324362E-08
(PID.TID 0000.0001) // =======================================================
(PID.TID 0000.0001) // End MONITOR dynamic field statistics
(PID.TID 0000.0001) // =======================================================
(PID.TID 0000.0001) // =======================================================
(PID.TID 0000.0001) // Begin MONITOR SEAICE statistics
(PID.TID 0000.0001) // =======================================================
(PID.TID 0000.0001) %MON seaice_tsnumber              =                  1072
(PID.TID 0000.0001) %MON seaice_time_sec              =   9.6480000000000E+05
(PID.TID 0000.0001) %MON seaice_uice_max              =   4.0000000000000E-01
(PID.TID 0000.0001) %MON seaice_uice_min              =  -4.0000000000000E-01
(PID.TID 0000.0001) %MON seaice_uice_mean             =  -8.3054598624025E-03
(PID.TID 0000.0001) %MON seaice_uice_sd               =   1.9802383574176E-01
(PID.TID 0000.0001) %MON seaice_uice_del2             =   2.2931571122150E-04
(PID.TID 0000.0001) %MON seaice_vice_max              =   4.0000000000000E-01
(PID.TID 0000.0001) %MON seaice_vice_min              =  -4.0000000000000E-01
(PID.TID 0000.0001) %MON seaice_vice_mean             =  -2.1960776359499E-02
(PID.TID 0000.0001) %MON seaice_vice_sd               =   2.1302038025672E-01
(PID.TID 0000.0001) %MON seaice_vice_del2             =   2.3932563818061E-04
(PID.TID 0000.0001) %MON seaice_area_max              =   9.9999999813735E-01
(PID.TID 0000.0001) %MON seaice_area_min              =   0.0000000000000E+00
(PID.TID 0000.0001) %MON seaice_area_mean             =   6.4777330149711E-02
(PID.TID 0000.0001) %MON seaice_area_sd               =   2.2794702831999E-01
(PID.TID 0000.0001) %MON seaice_area_del2             =   3.7580106009233E-04
(PID.TID 0000.0001) %MON seaice_heff_max              =   2.4903938416624E+01
(PID.TID 0000.0001) %MON seaice_heff_min              =   0.0000000000000E+00
(PID.TID 0000.0001) %MON seaice_heff_mean             =   2.1156838215092E-01
(PID.TID 0000.0001) %MON seaice_heff_sd               =   1.0656111073801E+00
(PID.TID 0000.0001) %MON seaice_heff_del2             =   3.8161595312954E-03
(PID.TID 0000.0001) %MON seaice_hsnow_max             =   8.2258132907737E+00
(PID.TID 0000.0001) %MON seaice_hsnow_min             =   0.0000000000000E+00
(PID.TID 0000.0001) %MON seaice_hsnow_mean            =   2.3846178261319E-02
(PID.TID 0000.0001) %MON seaice_hsnow_sd              =   1.5574783179803E-01
(PID.TID 0000.0001) %MON seaice_hsnow_del2            =   1.2346706446264E-03
(PID.TID 0000.0001) // =======================================================
(PID.TID 0000.0001) // End MONITOR SEAICE statistics
(PID.TID 0000.0001) // =======================================================
 Computing Diagnostic #     86  oceQnet      Counter:       4   Parms: SM      U1      
 Computing Diagnostic #     87  oceQsw       Counter:       4   Parms: SM      U1      
 Computing Diagnostic #     84  oceFWflx     Counter:       4   Parms: SM      U1      
 Computing Diagnostic #     85  oceSflux     Counter:       4   Parms: SM      U1      
 Computing Diagnostic #     80  oceTAUX      Counter:       4   Parms: UU      U1      
           Vector  Mate for  oceTAUX      Diagnostic #     81  oceTAUY  exists 
 Computing Diagnostic #     81  oceTAUY      Counter:       4   Parms: VV      U1      
           Vector  Mate for  oceTAUY      Diagnostic #     80  oceTAUX  exists 
 Computing Diagnostic #     26  THETA        Counter:       4   Parms: SMR     MR      
 Computing Diagnostic #     27  SALT         Counter:       4   Parms: SMR     MR      
 Computing Diagnostic #     30  UVEL         Counter:       4   Parms: UUR     MR      
           Vector  Mate for  UVEL         Diagnostic #     31  VVEL     exists 
 Computing Diagnostic #     31  VVEL         Counter:       4   Parms: VVR     MR      
           Vector  Mate for  VVEL         Diagnostic #     30  UVEL     exists 
 Computing Diagnostic #    214  SIarea       Counter:       4   Parms: SM      M1      
 Computing Diagnostic #    217  SIheff       Counter:       4   Parms: SM      M1      
 Computing Diagnostic #    219  SIhsnow      Counter:       4   Parms: SM      M1      
 Computing Diagnostic #     83  sIceLoad     Counter:       4   Parms: SM      U1      
 Computing Diagnostic #    223  SIuice       Counter:       4   Parms: UU      M1      
           Vector  Mate for  SIuice       Diagnostic #    224  SIvice   exists 
 Computing Diagnostic #    224  SIvice       Counter:       4   Parms: VV      M1      
           Vector  Mate for  SIvice       Diagnostic #    223  SIuice   exists 
 Computing Diagnostic #    225  SItaux       Counter:       4   Parms: UU      U1      
           Vector  Mate for  SItaux       Diagnostic #    226  SItauy   exists 
 Computing Diagnostic #    226  SItauy       Counter:       4   Parms: VV      U1      
           Vector  Mate for  SItauy       Diagnostic #    225  SItaux   exists 
 Computing Diagnostic #    285  SIareaN      Counter:       4   Parms: SM      MX      
 Computing Diagnostic #    284  SIheffN      Counter:       4   Parms: SM      MX      
 Computing Diagnostic #    286  SIhsnowN     Counter:       4   Parms: SM      MX      
 Compute Stats, Diag. #    214  SIarea    vol(   0 ): 3.580E+14  Parms: SM      M1      
 Compute Stats, Diag. #    217  SIheff    vol(   0 ): 3.580E+14  Parms: SM      M1      
 Compute Stats, Diag. #    219  SIhsnow   vol(   0 ): 3.580E+14  Parms: SM      M1      
 Compute Stats, Diag. #     83  sIceLoad  vol(   0 ): 3.580E+14  Parms: SM      U1      
 Compute Stats, Diag. #    223  SIuice    vol(   0 ): 3.513E+14  Parms: UU      M1      
 Compute Stats, Diag. #    224  SIvice    vol(   0 ): 3.508E+14  Parms: VV      M1      
 Compute Stats, Diag. #    225  SItaux    vol(   0 ): 3.513E+14  Parms: UU      U1      
 Compute Stats, Diag. #    226  SItauy    vol(   0 ): 3.508E+14  Parms: VV      U1      
 cg2d: Sum(rhs),rhsMax =  -4.23959033781567E+01  2.85286741018354E-01
 Compute Stats, Diag. #    214  SIarea    vol(   0 ): 3.580E+14  Parms: SM      M1      
 Compute Stats, Diag. #    217  SIheff    vol(   0 ): 3.580E+14  Parms: SM      M1      
 Compute Stats, Diag. #    219  SIhsnow   vol(   0 ): 3.580E+14  Parms: SM      M1      
 Compute Stats, Diag. #     83  sIceLoad  vol(   0 ): 3.580E+14  Parms: SM      U1      
 Compute Stats, Diag. #    223  SIuice    vol(   0 ): 3.513E+14  Parms: UU      M1      
 Compute Stats, Diag. #    224  SIvice    vol(   0 ): 3.508E+14  Parms: VV      M1      
 Compute Stats, Diag. #    225  SItaux    vol(   0 ): 3.513E+14  Parms: UU      U1      
 Compute Stats, Diag. #    226  SItauy    vol(   0 ): 3.508E+14  Parms: VV      U1      
 cg2d: Sum(rhs),rhsMax =  -4.24383935968197E+01  2.85329401599428E-01
 Compute Stats, Diag. #    214  SIarea    vol(   0 ): 3.580E+14  Parms: SM      M1      
 Compute Stats, Diag. #    217  SIheff    vol(   0 ): 3.580E+14  Parms: SM      M1      
 Compute Stats, Diag. #    219  SIhsnow   vol(   0 ): 3.580E+14  Parms: SM      M1      
 Compute Stats, Diag. #     83  sIceLoad  vol(   0 ): 3.580E+14  Parms: SM      U1      
 Compute Stats, Diag. #    223  SIuice    vol(   0 ): 3.513E+14  Parms: UU      M1      
 Compute Stats, Diag. #    224  SIvice    vol(   0 ): 3.508E+14  Parms: VV      M1      
 Compute Stats, Diag. #    225  SItaux    vol(   0 ): 3.513E+14  Parms: UU      U1      
 Compute Stats, Diag. #    226  SItauy    vol(   0 ): 3.508E+14  Parms: VV      U1      
 cg2d: Sum(rhs),rhsMax =  -4.24843407596526E+01  2.85376523234194E-01
 Compute Stats, Diag. #    214  SIarea    vol(   0 ): 3.580E+14  Parms: SM      M1      
 Compute Stats, Diag. #    217  SIheff    vol(   0 ): 3.580E+14  Parms: SM      M1      
 Compute Stats, Diag. #    219  SIhsnow   vol(   0 ): 3.580E+14  Parms: SM      M1      
 Compute Stats, Diag. #     83  sIceLoad  vol(   0 ): 3.580E+14  Parms: SM      U1      
 Compute Stats, Diag. #    223  SIuice    vol(   0 ): 3.513E+14  Parms: UU      M1      
 Compute Stats, Diag. #    224  SIvice    vol(   0 ): 3.508E+14  Parms: VV      M1      
 Compute Stats, Diag. #    225  SItaux    vol(   0 ): 3.513E+14  Parms: UU      U1      
 Compute Stats, Diag. #    226  SItauy    vol(   0 ): 3.508E+14  Parms: VV      U1      
 cg2d: Sum(rhs),rhsMax =  -4.25381635754977E+01  2.85426651188967E-01
 Computing Diagnostic #     86  oceQnet      Counter:       4   Parms: SM      U1      
 Computing Diagnostic #     87  oceQsw       Counter:       4   Parms: SM      U1      
 Computing Diagnostic #     84  oceFWflx     Counter:       4   Parms: SM      U1      
 Computing Diagnostic #     85  oceSflux     Counter:       4   Parms: SM      U1      
 Computing Diagnostic #     80  oceTAUX      Counter:       4   Parms: UU      U1      
           Vector  Mate for  oceTAUX      Diagnostic #     81  oceTAUY  exists 
 Computing Diagnostic #     81  oceTAUY      Counter:       4   Parms: VV      U1      
           Vector  Mate for  oceTAUY      Diagnostic #     80  oceTAUX  exists 
 Computing Diagnostic #     26  THETA        Counter:       4   Parms: SMR     MR      
 Computing Diagnostic #     27  SALT         Counter:       4   Parms: SMR     MR      
 Computing Diagnostic #     30  UVEL         Counter:       4   Parms: UUR     MR      
           Vector  Mate for  UVEL         Diagnostic #     31  VVEL     exists 
 Computing Diagnostic #     31  VVEL         Counter:       4   Parms: VVR     MR      
           Vector  Mate for  VVEL         Diagnostic #     30  UVEL     exists 
 Computing Diagnostic #    214  SIarea       Counter:       4   Parms: SM      M1      
 Computing Diagnostic #    217  SIheff       Counter:       4   Parms: SM      M1      
 Computing Diagnostic #    219  SIhsnow      Counter:       4   Parms: SM      M1      
 Computing Diagnostic #     83  sIceLoad     Counter:       4   Parms: SM      U1      
 Computing Diagnostic #    223  SIuice       Counter:       4   Parms: UU      M1      
           Vector  Mate for  SIuice       Diagnostic #    224  SIvice   exists 
 Computing Diagnostic #    224  SIvice       Counter:       4   Parms: VV      M1      
           Vector  Mate for  SIvice       Diagnostic #    223  SIuice   exists 
 Computing Diagnostic #    225  SItaux       Counter:       4   Parms: UU      U1      
           Vector  Mate for  SItaux       Diagnostic #    226  SItauy   exists 
 Computing Diagnostic #    226  SItauy       Counter:       4   Parms: VV      U1      
           Vector  Mate for  SItauy       Diagnostic #    225  SItaux   exists 
 Computing Diagnostic #    285  SIareaN      Counter:       4   Parms: SM      MX      
 Computing Diagnostic #    284  SIheffN      Counter:       4   Parms: SM      MX      
 Computing Diagnostic #    286  SIhsnowN     Counter:       4   Parms: SM      MX      
 Compute Stats, Diag. #    214  SIarea    vol(   0 ): 3.580E+14  Parms: SM      M1      
 Compute Stats, Diag. #    217  SIheff    vol(   0 ): 3.580E+14  Parms: SM      M1      
 Compute Stats, Diag. #    219  SIhsnow   vol(   0 ): 3.580E+14  Parms: SM      M1      
 Compute Stats, Diag. #     83  sIceLoad  vol(   0 ): 3.580E+14  Parms: SM      U1      
 Compute Stats, Diag. #    223  SIuice    vol(   0 ): 3.513E+14  Parms: UU      M1      
 Compute Stats, Diag. #    224  SIvice    vol(   0 ): 3.508E+14  Parms: VV      M1      
 Compute Stats, Diag. #    225  SItaux    vol(   0 ): 3.513E+14  Parms: UU      U1      
 Compute Stats, Diag. #    226  SItauy    vol(   0 ): 3.508E+14  Parms: VV      U1      
 cg2d: Sum(rhs),rhsMax =  -4.25791750661077E+01  2.85478131108457E-01
 Compute Stats, Diag. #    214  SIarea    vol(   0 ): 3.580E+14  Parms: SM      M1      
 Compute Stats, Diag. #    217  SIheff    vol(   0 ): 3.580E+14  Parms: SM      M1      
 Compute Stats, Diag. #    219  SIhsnow   vol(   0 ): 3.580E+14  Parms: SM      M1      
 Compute Stats, Diag. #     83  sIceLoad  vol(   0 ): 3.580E+14  Parms: SM      U1      
 Compute Stats, Diag. #    223  SIuice    vol(   0 ): 3.513E+14  Parms: UU      M1      
 Compute Stats, Diag. #    224  SIvice    vol(   0 ): 3.508E+14  Parms: VV      M1      
 Compute Stats, Diag. #    225  SItaux    vol(   0 ): 3.513E+14  Parms: UU      U1      
 Compute Stats, Diag. #    226  SItauy    vol(   0 ): 3.508E+14  Parms: VV      U1      
 cg2d: Sum(rhs),rhsMax =  -4.26200763794921E+01  2.85524110340466E-01
 Compute Stats, Diag. #    214  SIarea    vol(   0 ): 3.580E+14  Parms: SM      M1      
 Compute Stats, Diag. #    217  SIheff    vol(   0 ): 3.580E+14  Parms: SM      M1      
 Compute Stats, Diag. #    219  SIhsnow   vol(   0 ): 3.580E+14  Parms: SM      M1      
 Compute Stats, Diag. #     83  sIceLoad  vol(   0 ): 3.580E+14  Parms: SM      U1      
 Compute Stats, Diag. #    223  SIuice    vol(   0 ): 3.513E+14  Parms: UU      M1      
 Compute Stats, Diag. #    224  SIvice    vol(   0 ): 3.508E+14  Parms: VV      M1      
 Compute Stats, Diag. #    225  SItaux    vol(   0 ): 3.513E+14  Parms: UU      U1      
 Compute Stats, Diag. #    226  SItauy    vol(   0 ): 3.508E+14  Parms: VV      U1      
 cg2d: Sum(rhs),rhsMax =  -4.26694384737547E+01  2.85582903643948E-01
 Compute Stats, Diag. #    214  SIarea    vol(   0 ): 3.580E+14  Parms: SM      M1      
 Compute Stats, Diag. #    217  SIheff    vol(   0 ): 3.580E+14  Parms: SM      M1      
 Compute Stats, Diag. #    219  SIhsnow   vol(   0 ): 3.580E+14  Parms: SM      M1      
 Compute Stats, Diag. #     83  sIceLoad  vol(   0 ): 3.580E+14  Parms: SM      U1      
 Compute Stats, Diag. #    223  SIuice    vol(   0 ): 3.513E+14  Parms: UU      M1      
 Compute Stats, Diag. #    224  SIvice    vol(   0 ): 3.508E+14  Parms: VV      M1      
 Compute Stats, Diag. #    225  SItaux    vol(   0 ): 3.513E+14  Parms: UU      U1      
 Compute Stats, Diag. #    226  SItauy    vol(   0 ): 3.508E+14  Parms: VV      U1      
 cg2d: Sum(rhs),rhsMax =  -4.27150385028606E+01  2.85647710817667E-01
(PID.TID 0000.0001)      cg2d_init_res =   4.39238463108778E-02
(PID.TID 0000.0001)      cg2d_iters(min,last) =      -1      23
(PID.TID 0000.0001)      cg2d_last_res =   2.66194251031096E-05
(PID.TID 0000.0001) // =======================================================
(PID.TID 0000.0001) // Begin MONITOR dynamic field statistics
(PID.TID 0000.0001) // =======================================================
(PID.TID 0000.0001) %MON time_tsnumber                =                  1080
(PID.TID 0000.0001) %MON time_secondsf                =   9.7200000000000E+05
(PID.TID 0000.0001) %MON dynstat_eta_max              =   1.0087259784114E+00
(PID.TID 0000.0001) %MON dynstat_eta_min              =  -1.8038245345533E+00
(PID.TID 0000.0001) %MON dynstat_eta_mean             =   1.3512130906266E-03
(PID.TID 0000.0001) %MON dynstat_eta_sd               =   6.2249833978780E-01
(PID.TID 0000.0001) %MON dynstat_eta_del2             =   5.1668941747809E-05
(PID.TID 0000.0001) %MON dynstat_uvel_max             =   6.7683291491572E-01
(PID.TID 0000.0001) %MON dynstat_uvel_min             =  -9.1354612564250E-01
(PID.TID 0000.0001) %MON dynstat_uvel_mean            =   1.3231136903122E-03
(PID.TID 0000.0001) %MON dynstat_uvel_sd              =   1.7893005061544E-02
(PID.TID 0000.0001) %MON dynstat_uvel_del2            =   6.9594250910506E-06
(PID.TID 0000.0001) %MON dynstat_vvel_max             =   6.7157997263234E-01
(PID.TID 0000.0001) %MON dynstat_vvel_min             =  -1.0339399391530E+00
(PID.TID 0000.0001) %MON dynstat_vvel_mean            =   9.9809917191038E-04
(PID.TID 0000.0001) %MON dynstat_vvel_sd              =   1.9342567877643E-02
(PID.TID 0000.0001) %MON dynstat_vvel_del2            =   7.1936022867671E-06
(PID.TID 0000.0001) %MON dynstat_wvel_max             =   3.6731964224557E-04
(PID.TID 0000.0001) %MON dynstat_wvel_min             =  -7.7881788490444E-04
(PID.TID 0000.0001) %MON dynstat_wvel_mean            =   1.7635601294047E-09
(PID.TID 0000.0001) %MON dynstat_wvel_sd              =   1.5374175207228E-05
(PID.TID 0000.0001) %MON dynstat_wvel_del2            =   1.3668082488216E-08
(PID.TID 0000.0001) %MON dynstat_theta_max            =   3.1659510072743E+01
(PID.TID 0000.0001) %MON dynstat_theta_min            =  -2.0396281702201E+00
(PID.TID 0000.0001) %MON dynstat_theta_mean           =   3.5901470520221E+00
(PID.TID 0000.0001) %MON dynstat_theta_sd             =   4.4369020863210E+00
(PID.TID 0000.0001) %MON dynstat_theta_del2           =   9.0089179575549E-05
(PID.TID 0000.0001) %MON dynstat_salt_max             =   4.0711546395456E+01
(PID.TID 0000.0001) %MON dynstat_salt_min             =   5.2588522251581E+00
(PID.TID 0000.0001) %MON dynstat_salt_mean            =   3.4725559743067E+01
(PID.TID 0000.0001) %MON dynstat_salt_sd              =   3.7712347835373E-01
(PID.TID 0000.0001) %MON dynstat_salt_del2            =   3.5213665228063E-05
(PID.TID 0000.0001) %MON dynstat_sst_max              =   3.1659510072743E+01
(PID.TID 0000.0001) %MON dynstat_sst_min              =  -1.8054068804689E+00
(PID.TID 0000.0001) %MON dynstat_sst_mean             =   1.8458284826515E+01
(PID.TID 0000.0001) %MON dynstat_sst_sd               =   1.0295824102018E+01
(PID.TID 0000.0001) %MON dynstat_sst_del2             =   7.9275917304459E-04
(PID.TID 0000.0001) %MON dynstat_sss_max              =   3.9098050989556E+01
(PID.TID 0000.0001) %MON dynstat_sss_min              =   5.2588522251581E+00
(PID.TID 0000.0001) %MON dynstat_sss_mean             =   3.4701211168615E+01
(PID.TID 0000.0001) %MON dynstat_sss_sd               =   1.1838631479113E+00
(PID.TID 0000.0001) %MON dynstat_sss_del2             =   1.0658036434968E-03
(PID.TID 0000.0001) %MON forcing_qnet_max             =   6.6599853515625E+02
(PID.TID 0000.0001) %MON forcing_qnet_min             =  -7.7289816170949E+02
(PID.TID 0000.0001) %MON forcing_qnet_mean            =   6.0693405379277E+00
(PID.TID 0000.0001) %MON forcing_qnet_sd              =   1.8050052717008E+02
(PID.TID 0000.0001) %MON forcing_qnet_del2            =   3.1068758079102E-01
(PID.TID 0000.0001) %MON forcing_qsw_max              =   0.0000000000000E+00
(PID.TID 0000.0001) %MON forcing_qsw_min              =  -1.0947391113992E+02
(PID.TID 0000.0001) %MON forcing_qsw_mean             =  -1.8856769876901E+01
(PID.TID 0000.0001) %MON forcing_qsw_sd               =   2.7912720106906E+01
(PID.TID 0000.0001) %MON forcing_qsw_del2             =   2.2045787591155E-02
(PID.TID 0000.0001) %MON forcing_empmr_max            =   2.1191406995058E-03
(PID.TID 0000.0001) %MON forcing_empmr_min            =  -4.1716244071722E-02
(PID.TID 0000.0001) %MON forcing_empmr_mean           =  -1.6492292440121E-06
(PID.TID 0000.0001) %MON forcing_empmr_sd             =   2.3718131529216E-04
(PID.TID 0000.0001) %MON forcing_empmr_del2           =   2.8267068939819E-06
(PID.TID 0000.0001) %MON forcing_fu_max               =   8.4553670883179E-01
(PID.TID 0000.0001) %MON forcing_fu_min               =  -8.1937217304447E-01
(PID.TID 0000.0001) %MON forcing_fu_mean              =   2.6121910193527E-03
(PID.TID 0000.0001) %MON forcing_fu_sd                =   1.0579919548575E-01
(PID.TID 0000.0001) %MON forcing_fu_del2              =   1.3901383569276E-04
(PID.TID 0000.0001) %MON forcing_fv_max               =   6.2562173604965E-01
(PID.TID 0000.0001) %MON forcing_fv_min               =  -8.8883485557888E-01
(PID.TID 0000.0001) %MON forcing_fv_mean              =  -1.0269083108201E-02
(PID.TID 0000.0001) %MON forcing_fv_sd                =   1.0506626769702E-01
(PID.TID 0000.0001) %MON forcing_fv_del2              =   1.4271707005075E-04
(PID.TID 0000.0001) %MON trAdv_CFL_u_max              =   1.1435553329374E-02
(PID.TID 0000.0001) %MON trAdv_CFL_v_max              =   1.5295939811851E-02
(PID.TID 0000.0001) %MON trAdv_CFL_w_max              =   2.1187119418758E-02
(PID.TID 0000.0001) %MON advcfl_uvel_max              =   1.0257436152864E-02
(PID.TID 0000.0001) %MON advcfl_vvel_max              =   1.4334095390754E-02
(PID.TID 0000.0001) %MON advcfl_wvel_max              =   2.3368151687696E-02
(PID.TID 0000.0001) %MON advcfl_W_hf_max              =   2.4505796171207E-02
(PID.TID 0000.0001) %MON pe_b_mean                    =   5.0972573663094E-04
(PID.TID 0000.0001) %MON ke_max                       =   5.4737308431162E-01
(PID.TID 0000.0001) %MON ke_mean                      =   3.3611070784008E-04
(PID.TID 0000.0001) %MON ke_vol                       =   1.3349983601759E+18
(PID.TID 0000.0001) %MON vort_r_min                   =  -1.9709862629002E-05
(PID.TID 0000.0001) %MON vort_r_max                   =   2.3096140850460E-05
(PID.TID 0000.0001) %MON vort_a_mean                  =  -1.9727864647440E-05
(PID.TID 0000.0001) %MON vort_a_sd                    =   7.4542970346145E-05
(PID.TID 0000.0001) %MON vort_p_mean                  =  -2.1760525704668E-05
(PID.TID 0000.0001) %MON vort_p_sd                    =   9.7246588520239E-05
(PID.TID 0000.0001) %MON surfExpan_theta_mean         =   2.1607745592013E-07
(PID.TID 0000.0001) %MON surfExpan_salt_mean          =   3.6473897099309E-08
(PID.TID 0000.0001) // =======================================================
(PID.TID 0000.0001) // End MONITOR dynamic field statistics
(PID.TID 0000.0001) // =======================================================
(PID.TID 0000.0001) // =======================================================
(PID.TID 0000.0001) // Begin MONITOR SEAICE statistics
(PID.TID 0000.0001) // =======================================================
(PID.TID 0000.0001) %MON seaice_tsnumber              =                  1080
(PID.TID 0000.0001) %MON seaice_time_sec              =   9.7200000000000E+05
(PID.TID 0000.0001) %MON seaice_uice_max              =   4.0000000000000E-01
(PID.TID 0000.0001) %MON seaice_uice_min              =  -4.0000000000000E-01
(PID.TID 0000.0001) %MON seaice_uice_mean             =  -8.3054598624025E-03
(PID.TID 0000.0001) %MON seaice_uice_sd               =   1.9802383574176E-01
(PID.TID 0000.0001) %MON seaice_uice_del2             =   2.2931571122150E-04
(PID.TID 0000.0001) %MON seaice_vice_max              =   4.0000000000000E-01
(PID.TID 0000.0001) %MON seaice_vice_min              =  -4.0000000000000E-01
(PID.TID 0000.0001) %MON seaice_vice_mean             =  -2.1960776359499E-02
(PID.TID 0000.0001) %MON seaice_vice_sd               =   2.1302038025672E-01
(PID.TID 0000.0001) %MON seaice_vice_del2             =   2.3932563818061E-04
(PID.TID 0000.0001) %MON seaice_area_max              =   1.0000000000000E+00
(PID.TID 0000.0001) %MON seaice_area_min              =   0.0000000000000E+00
(PID.TID 0000.0001) %MON seaice_area_mean             =   6.4743998466850E-02
(PID.TID 0000.0001) %MON seaice_area_sd               =   2.2788567275289E-01
(PID.TID 0000.0001) %MON seaice_area_del2             =   3.7537993074397E-04
(PID.TID 0000.0001) %MON seaice_heff_max              =   2.4902286607190E+01
(PID.TID 0000.0001) %MON seaice_heff_min              =   0.0000000000000E+00
(PID.TID 0000.0001) %MON seaice_heff_mean             =   2.1154357681329E-01
(PID.TID 0000.0001) %MON seaice_heff_sd               =   1.0655926410123E+00
(PID.TID 0000.0001) %MON seaice_heff_del2             =   3.8155849079081E-03
(PID.TID 0000.0001) %MON seaice_hsnow_max             =   8.2252641338564E+00
(PID.TID 0000.0001) %MON seaice_hsnow_min             =   0.0000000000000E+00
(PID.TID 0000.0001) %MON seaice_hsnow_mean            =   2.3847255462144E-02
(PID.TID 0000.0001) %MON seaice_hsnow_sd              =   1.5574641445354E-01
(PID.TID 0000.0001) %MON seaice_hsnow_del2            =   1.2345369752449E-03
(PID.TID 0000.0001) // =======================================================
(PID.TID 0000.0001) // End MONITOR SEAICE statistics
(PID.TID 0000.0001) // =======================================================
 Computing Diagnostic #     86  oceQnet      Counter:       4   Parms: SM      U1      
 Computing Diagnostic #     87  oceQsw       Counter:       4   Parms: SM      U1      
 Computing Diagnostic #     84  oceFWflx     Counter:       4   Parms: SM      U1      
 Computing Diagnostic #     85  oceSflux     Counter:       4   Parms: SM      U1      
 Computing Diagnostic #     80  oceTAUX      Counter:       4   Parms: UU      U1      
           Vector  Mate for  oceTAUX      Diagnostic #     81  oceTAUY  exists 
 Computing Diagnostic #     81  oceTAUY      Counter:       4   Parms: VV      U1      
           Vector  Mate for  oceTAUY      Diagnostic #     80  oceTAUX  exists 
 Computing Diagnostic #     26  THETA        Counter:       4   Parms: SMR     MR      
 Computing Diagnostic #     27  SALT         Counter:       4   Parms: SMR     MR      
 Computing Diagnostic #     30  UVEL         Counter:       4   Parms: UUR     MR      
           Vector  Mate for  UVEL         Diagnostic #     31  VVEL     exists 
 Computing Diagnostic #     31  VVEL         Counter:       4   Parms: VVR     MR      
           Vector  Mate for  VVEL         Diagnostic #     30  UVEL     exists 
 Computing Diagnostic #    214  SIarea       Counter:       4   Parms: SM      M1      
 Computing Diagnostic #    217  SIheff       Counter:       4   Parms: SM      M1      
 Computing Diagnostic #    219  SIhsnow      Counter:       4   Parms: SM      M1      
 Computing Diagnostic #     83  sIceLoad     Counter:       4   Parms: SM      U1      
 Computing Diagnostic #    223  SIuice       Counter:       4   Parms: UU      M1      
           Vector  Mate for  SIuice       Diagnostic #    224  SIvice   exists 
 Computing Diagnostic #    224  SIvice       Counter:       4   Parms: VV      M1      
           Vector  Mate for  SIvice       Diagnostic #    223  SIuice   exists 
 Computing Diagnostic #    225  SItaux       Counter:       4   Parms: UU      U1      
           Vector  Mate for  SItaux       Diagnostic #    226  SItauy   exists 
 Computing Diagnostic #    226  SItauy       Counter:       4   Parms: VV      U1      
           Vector  Mate for  SItauy       Diagnostic #    225  SItaux   exists 
 Computing Diagnostic #    285  SIareaN      Counter:       4   Parms: SM      MX      
 Computing Diagnostic #    284  SIheffN      Counter:       4   Parms: SM      MX      
 Computing Diagnostic #    286  SIhsnowN     Counter:       4   Parms: SM      MX      
 Compute Stats, Diag. #    214  SIarea    vol(   0 ): 3.580E+14  Parms: SM      M1      
 Compute Stats, Diag. #    217  SIheff    vol(   0 ): 3.580E+14  Parms: SM      M1      
 Compute Stats, Diag. #    219  SIhsnow   vol(   0 ): 3.580E+14  Parms: SM      M1      
 Compute Stats, Diag. #     83  sIceLoad  vol(   0 ): 3.580E+14  Parms: SM      U1      
 Compute Stats, Diag. #    223  SIuice    vol(   0 ): 3.513E+14  Parms: UU      M1      
 Compute Stats, Diag. #    224  SIvice    vol(   0 ): 3.508E+14  Parms: VV      M1      
 Compute Stats, Diag. #    225  SItaux    vol(   0 ): 3.513E+14  Parms: UU      U1      
 Compute Stats, Diag. #    226  SItauy    vol(   0 ): 3.508E+14  Parms: VV      U1      
 cg2d: Sum(rhs),rhsMax =  -4.27661330029535E+01  2.85715772628787E-01
 Compute Stats, Diag. #    214  SIarea    vol(   0 ): 3.580E+14  Parms: SM      M1      
 Compute Stats, Diag. #    217  SIheff    vol(   0 ): 3.580E+14  Parms: SM      M1      
 Compute Stats, Diag. #    219  SIhsnow   vol(   0 ): 3.580E+14  Parms: SM      M1      
 Compute Stats, Diag. #     83  sIceLoad  vol(   0 ): 3.580E+14  Parms: SM      U1      
 Compute Stats, Diag. #    223  SIuice    vol(   0 ): 3.513E+14  Parms: UU      M1      
 Compute Stats, Diag. #    224  SIvice    vol(   0 ): 3.508E+14  Parms: VV      M1      
 Compute Stats, Diag. #    225  SItaux    vol(   0 ): 3.513E+14  Parms: UU      U1      
 Compute Stats, Diag. #    226  SItauy    vol(   0 ): 3.508E+14  Parms: VV      U1      
 cg2d: Sum(rhs),rhsMax =  -4.28313155373419E+01  2.85787963789402E-01
 Compute Stats, Diag. #    214  SIarea    vol(   0 ): 3.580E+14  Parms: SM      M1      
 Compute Stats, Diag. #    217  SIheff    vol(   0 ): 3.580E+14  Parms: SM      M1      
 Compute Stats, Diag. #    219  SIhsnow   vol(   0 ): 3.580E+14  Parms: SM      M1      
 Compute Stats, Diag. #     83  sIceLoad  vol(   0 ): 3.580E+14  Parms: SM      U1      
 Compute Stats, Diag. #    223  SIuice    vol(   0 ): 3.513E+14  Parms: UU      M1      
 Compute Stats, Diag. #    224  SIvice    vol(   0 ): 3.508E+14  Parms: VV      M1      
 Compute Stats, Diag. #    225  SItaux    vol(   0 ): 3.513E+14  Parms: UU      U1      
 Compute Stats, Diag. #    226  SItauy    vol(   0 ): 3.508E+14  Parms: VV      U1      
 cg2d: Sum(rhs),rhsMax =  -4.28968850309949E+01  2.85864829521255E-01
 Compute Stats, Diag. #    214  SIarea    vol(   0 ): 3.580E+14  Parms: SM      M1      
 Compute Stats, Diag. #    217  SIheff    vol(   0 ): 3.580E+14  Parms: SM      M1      
 Compute Stats, Diag. #    219  SIhsnow   vol(   0 ): 3.580E+14  Parms: SM      M1      
 Compute Stats, Diag. #     83  sIceLoad  vol(   0 ): 3.580E+14  Parms: SM      U1      
 Compute Stats, Diag. #    223  SIuice    vol(   0 ): 3.513E+14  Parms: UU      M1      
 Compute Stats, Diag. #    224  SIvice    vol(   0 ): 3.508E+14  Parms: VV      M1      
 Compute Stats, Diag. #    225  SItaux    vol(   0 ): 3.513E+14  Parms: UU      U1      
 Compute Stats, Diag. #    226  SItauy    vol(   0 ): 3.508E+14  Parms: VV      U1      
 cg2d: Sum(rhs),rhsMax =  -4.29661067786805E+01  2.85947345138416E-01
 Computing Diagnostic #     86  oceQnet      Counter:       4   Parms: SM      U1      
 Computing Diagnostic #     87  oceQsw       Counter:       4   Parms: SM      U1      
 Computing Diagnostic #     84  oceFWflx     Counter:       4   Parms: SM      U1      
 Computing Diagnostic #     85  oceSflux     Counter:       4   Parms: SM      U1      
 Computing Diagnostic #     80  oceTAUX      Counter:       4   Parms: UU      U1      
           Vector  Mate for  oceTAUX      Diagnostic #     81  oceTAUY  exists 
 Computing Diagnostic #     81  oceTAUY      Counter:       4   Parms: VV      U1      
           Vector  Mate for  oceTAUY      Diagnostic #     80  oceTAUX  exists 
 Computing Diagnostic #     26  THETA        Counter:       4   Parms: SMR     MR      
 Computing Diagnostic #     27  SALT         Counter:       4   Parms: SMR     MR      
 Computing Diagnostic #     30  UVEL         Counter:       4   Parms: UUR     MR      
           Vector  Mate for  UVEL         Diagnostic #     31  VVEL     exists 
 Computing Diagnostic #     31  VVEL         Counter:       4   Parms: VVR     MR      
           Vector  Mate for  VVEL         Diagnostic #     30  UVEL     exists 
 Computing Diagnostic #    214  SIarea       Counter:       4   Parms: SM      M1      
 Computing Diagnostic #    217  SIheff       Counter:       4   Parms: SM      M1      
 Computing Diagnostic #    219  SIhsnow      Counter:       4   Parms: SM      M1      
 Computing Diagnostic #     83  sIceLoad     Counter:       4   Parms: SM      U1      
 Computing Diagnostic #    223  SIuice       Counter:       4   Parms: UU      M1      
           Vector  Mate for  SIuice       Diagnostic #    224  SIvice   exists 
 Computing Diagnostic #    224  SIvice       Counter:       4   Parms: VV      M1      
           Vector  Mate for  SIvice       Diagnostic #    223  SIuice   exists 
 Computing Diagnostic #    225  SItaux       Counter:       4   Parms: UU      U1      
           Vector  Mate for  SItaux       Diagnostic #    226  SItauy   exists 
 Computing Diagnostic #    226  SItauy       Counter:       4   Parms: VV      U1      
           Vector  Mate for  SItauy       Diagnostic #    225  SItaux   exists 
 Computing Diagnostic #    285  SIareaN      Counter:       4   Parms: SM      MX      
 Computing Diagnostic #    284  SIheffN      Counter:       4   Parms: SM      MX      
 Computing Diagnostic #    286  SIhsnowN     Counter:       4   Parms: SM      MX      
 Compute Stats, Diag. #    214  SIarea    vol(   0 ): 3.580E+14  Parms: SM      M1      
 Compute Stats, Diag. #    217  SIheff    vol(   0 ): 3.580E+14  Parms: SM      M1      
 Compute Stats, Diag. #    219  SIhsnow   vol(   0 ): 3.580E+14  Parms: SM      M1      
 Compute Stats, Diag. #     83  sIceLoad  vol(   0 ): 3.580E+14  Parms: SM      U1      
 Compute Stats, Diag. #    223  SIuice    vol(   0 ): 3.513E+14  Parms: UU      M1      
 Compute Stats, Diag. #    224  SIvice    vol(   0 ): 3.508E+14  Parms: VV      M1      
 Compute Stats, Diag. #    225  SItaux    vol(   0 ): 3.513E+14  Parms: UU      U1      
 Compute Stats, Diag. #    226  SItauy    vol(   0 ): 3.508E+14  Parms: VV      U1      
 cg2d: Sum(rhs),rhsMax =  -4.30450407585449E+01  2.86034751983710E-01
 Compute Stats, Diag. #    214  SIarea    vol(   0 ): 3.580E+14  Parms: SM      M1      
 Compute Stats, Diag. #    217  SIheff    vol(   0 ): 3.580E+14  Parms: SM      M1      
 Compute Stats, Diag. #    219  SIhsnow   vol(   0 ): 3.580E+14  Parms: SM      M1      
 Compute Stats, Diag. #     83  sIceLoad  vol(   0 ): 3.580E+14  Parms: SM      U1      
 Compute Stats, Diag. #    223  SIuice    vol(   0 ): 3.513E+14  Parms: UU      M1      
 Compute Stats, Diag. #    224  SIvice    vol(   0 ): 3.508E+14  Parms: VV      M1      
 Compute Stats, Diag. #    225  SItaux    vol(   0 ): 3.513E+14  Parms: UU      U1      
 Compute Stats, Diag. #    226  SItauy    vol(   0 ): 3.508E+14  Parms: VV      U1      
 cg2d: Sum(rhs),rhsMax =  -4.31270579967963E+01  2.86127396046292E-01
 Compute Stats, Diag. #    214  SIarea    vol(   0 ): 3.580E+14  Parms: SM      M1      
 Compute Stats, Diag. #    217  SIheff    vol(   0 ): 3.580E+14  Parms: SM      M1      
 Compute Stats, Diag. #    219  SIhsnow   vol(   0 ): 3.580E+14  Parms: SM      M1      
 Compute Stats, Diag. #     83  sIceLoad  vol(   0 ): 3.580E+14  Parms: SM      U1      
 Compute Stats, Diag. #    223  SIuice    vol(   0 ): 3.513E+14  Parms: UU      M1      
 Compute Stats, Diag. #    224  SIvice    vol(   0 ): 3.508E+14  Parms: VV      M1      
 Compute Stats, Diag. #    225  SItaux    vol(   0 ): 3.513E+14  Parms: UU      U1      
 Compute Stats, Diag. #    226  SItauy    vol(   0 ): 3.508E+14  Parms: VV      U1      
 cg2d: Sum(rhs),rhsMax =  -4.32153572405018E+01  2.86235417759447E-01
 Compute Stats, Diag. #    214  SIarea    vol(   0 ): 3.580E+14  Parms: SM      M1      
 Compute Stats, Diag. #    217  SIheff    vol(   0 ): 3.580E+14  Parms: SM      M1      
 Compute Stats, Diag. #    219  SIhsnow   vol(   0 ): 3.580E+14  Parms: SM      M1      
 Compute Stats, Diag. #     83  sIceLoad  vol(   0 ): 3.580E+14  Parms: SM      U1      
 Compute Stats, Diag. #    223  SIuice    vol(   0 ): 3.513E+14  Parms: UU      M1      
 Compute Stats, Diag. #    224  SIvice    vol(   0 ): 3.508E+14  Parms: VV      M1      
 Compute Stats, Diag. #    225  SItaux    vol(   0 ): 3.513E+14  Parms: UU      U1      
 Compute Stats, Diag. #    226  SItauy    vol(   0 ): 3.508E+14  Parms: VV      U1      
 cg2d: Sum(rhs),rhsMax =  -4.33058420735074E+01  2.86341292471540E-01
(PID.TID 0000.0001)      cg2d_init_res =   4.32249381073273E-02
(PID.TID 0000.0001)      cg2d_iters(min,last) =      -1      24
(PID.TID 0000.0001)      cg2d_last_res =   2.38793351002435E-05
(PID.TID 0000.0001) // =======================================================
(PID.TID 0000.0001) // Begin MONITOR dynamic field statistics
(PID.TID 0000.0001) // =======================================================
(PID.TID 0000.0001) %MON time_tsnumber                =                  1088
(PID.TID 0000.0001) %MON time_secondsf                =   9.7920000000000E+05
(PID.TID 0000.0001) %MON dynstat_eta_max              =   1.0088713523650E+00
(PID.TID 0000.0001) %MON dynstat_eta_min              =  -1.8056094492609E+00
(PID.TID 0000.0001) %MON dynstat_eta_mean             =   1.3699020944677E-03
(PID.TID 0000.0001) %MON dynstat_eta_sd               =   6.2266797298122E-01
(PID.TID 0000.0001) %MON dynstat_eta_del2             =   5.1981983478464E-05
(PID.TID 0000.0001) %MON dynstat_uvel_max             =   6.6983515075375E-01
(PID.TID 0000.0001) %MON dynstat_uvel_min             =  -9.1075405600209E-01
(PID.TID 0000.0001) %MON dynstat_uvel_mean            =   1.3333053021991E-03
(PID.TID 0000.0001) %MON dynstat_uvel_sd              =   1.7897795121742E-02
(PID.TID 0000.0001) %MON dynstat_uvel_del2            =   6.9521047385092E-06
(PID.TID 0000.0001) %MON dynstat_vvel_max             =   6.8793308330445E-01
(PID.TID 0000.0001) %MON dynstat_vvel_min             =  -1.0351383332084E+00
(PID.TID 0000.0001) %MON dynstat_vvel_mean            =   1.0012936200729E-03
(PID.TID 0000.0001) %MON dynstat_vvel_sd              =   1.9363375957879E-02
(PID.TID 0000.0001) %MON dynstat_vvel_del2            =   7.2070187868198E-06
(PID.TID 0000.0001) %MON dynstat_wvel_max             =   3.9919617364540E-04
(PID.TID 0000.0001) %MON dynstat_wvel_min             =  -7.8032285743958E-04
(PID.TID 0000.0001) %MON dynstat_wvel_mean            =  -7.5217101187072E-10
(PID.TID 0000.0001) %MON dynstat_wvel_sd              =   1.5337835454605E-05
(PID.TID 0000.0001) %MON dynstat_wvel_del2            =   1.3741370743225E-08
(PID.TID 0000.0001) %MON dynstat_theta_max            =   3.1671098945337E+01
(PID.TID 0000.0001) %MON dynstat_theta_min            =  -2.0396242747274E+00
(PID.TID 0000.0001) %MON dynstat_theta_mean           =   3.5901386055634E+00
(PID.TID 0000.0001) %MON dynstat_theta_sd             =   4.4368938149437E+00
(PID.TID 0000.0001) %MON dynstat_theta_del2           =   9.0049077764705E-05
(PID.TID 0000.0001) %MON dynstat_salt_max             =   4.0711546634019E+01
(PID.TID 0000.0001) %MON dynstat_salt_min             =   5.4575200045603E+00
(PID.TID 0000.0001) %MON dynstat_salt_mean            =   3.4725559587777E+01
(PID.TID 0000.0001) %MON dynstat_salt_sd              =   3.7712476522430E-01
(PID.TID 0000.0001) %MON dynstat_salt_del2            =   3.5312482092150E-05
(PID.TID 0000.0001) %MON dynstat_sst_max              =   3.1671098945337E+01
(PID.TID 0000.0001) %MON dynstat_sst_min              =  -1.8064318838649E+00
(PID.TID 0000.0001) %MON dynstat_sst_mean             =   1.8454679118629E+01
(PID.TID 0000.0001) %MON dynstat_sst_sd               =   1.0296429855827E+01
(PID.TID 0000.0001) %MON dynstat_sst_del2             =   7.9390849399180E-04
(PID.TID 0000.0001) %MON dynstat_sss_max              =   3.9098039925892E+01
(PID.TID 0000.0001) %MON dynstat_sss_min              =   5.4575200045603E+00
(PID.TID 0000.0001) %MON dynstat_sss_mean             =   3.4701204448432E+01
(PID.TID 0000.0001) %MON dynstat_sss_sd               =   1.1840194129095E+00
(PID.TID 0000.0001) %MON dynstat_sss_del2             =   1.0688125292111E-03
(PID.TID 0000.0001) %MON forcing_qnet_max             =   7.0065209960938E+02
(PID.TID 0000.0001) %MON forcing_qnet_min             =  -8.7266956216569E+02
(PID.TID 0000.0001) %MON forcing_qnet_mean            =   2.5821824294006E+01
(PID.TID 0000.0001) %MON forcing_qnet_sd              =   1.7023314182179E+02
(PID.TID 0000.0001) %MON forcing_qnet_del2            =   3.0966693978982E-01
(PID.TID 0000.0001) %MON forcing_qsw_max              =   0.0000000000000E+00
(PID.TID 0000.0001) %MON forcing_qsw_min              =  -1.0756578056601E+02
(PID.TID 0000.0001) %MON forcing_qsw_mean             =  -1.6535234439362E+01
(PID.TID 0000.0001) %MON forcing_qsw_sd               =   2.6275520351971E+01
(PID.TID 0000.0001) %MON forcing_qsw_del2             =   2.0943491248919E-02
(PID.TID 0000.0001) %MON forcing_empmr_max            =   8.5218640742823E-04
(PID.TID 0000.0001) %MON forcing_empmr_min            =  -1.0292249917984E-01
(PID.TID 0000.0001) %MON forcing_empmr_mean           =  -3.2725907343245E-06
(PID.TID 0000.0001) %MON forcing_empmr_sd             =   3.3050919661667E-04
(PID.TID 0000.0001) %MON forcing_empmr_del2           =   4.8415008112666E-06
(PID.TID 0000.0001) %MON forcing_fu_max               =   8.5504814982414E-01
(PID.TID 0000.0001) %MON forcing_fu_min               =  -9.1474941652182E-01
(PID.TID 0000.0001) %MON forcing_fu_mean              =   3.0373377061244E-03
(PID.TID 0000.0001) %MON forcing_fu_sd                =   1.0589320644135E-01
(PID.TID 0000.0001) %MON forcing_fu_del2              =   1.3678064567702E-04
(PID.TID 0000.0001) %MON forcing_fv_max               =   5.8918979763985E-01
(PID.TID 0000.0001) %MON forcing_fv_min               =  -9.1522164107571E-01
(PID.TID 0000.0001) %MON forcing_fv_mean              =  -1.1264731870266E-02
(PID.TID 0000.0001) %MON forcing_fv_sd                =   1.0440013752929E-01
(PID.TID 0000.0001) %MON forcing_fv_del2              =   1.4279950026380E-04
(PID.TID 0000.0001) %MON trAdv_CFL_u_max              =   1.1412593989900E-02
(PID.TID 0000.0001) %MON trAdv_CFL_v_max              =   1.5649869538019E-02
(PID.TID 0000.0001) %MON trAdv_CFL_w_max              =   2.1450115371907E-02
(PID.TID 0000.0001) %MON advcfl_uvel_max              =   1.0299818460934E-02
(PID.TID 0000.0001) %MON advcfl_vvel_max              =   1.4683133566194E-02
(PID.TID 0000.0001) %MON advcfl_wvel_max              =   2.3619455719265E-02
(PID.TID 0000.0001) %MON advcfl_W_hf_max              =   2.4768811399613E-02
(PID.TID 0000.0001) %MON pe_b_mean                    =   5.1000364215601E-04
(PID.TID 0000.0001) %MON ke_max                       =   5.4987401166705E-01
(PID.TID 0000.0001) %MON ke_mean                      =   3.3659791660054E-04
(PID.TID 0000.0001) %MON ke_vol                       =   1.3349983663585E+18
(PID.TID 0000.0001) %MON vort_r_min                   =  -2.0087784912286E-05
(PID.TID 0000.0001) %MON vort_r_max                   =   2.3543384506323E-05
(PID.TID 0000.0001) %MON vort_a_mean                  =  -1.9727864647440E-05
(PID.TID 0000.0001) %MON vort_a_sd                    =   7.4542972859494E-05
(PID.TID 0000.0001) %MON vort_p_mean                  =  -2.1760525628571E-05
(PID.TID 0000.0001) %MON vort_p_sd                    =   9.7246653239533E-05
(PID.TID 0000.0001) %MON surfExpan_theta_mean         =   1.8833872373490E-07
(PID.TID 0000.0001) %MON surfExpan_salt_mean          =   4.1631363919488E-08
(PID.TID 0000.0001) // =======================================================
(PID.TID 0000.0001) // End MONITOR dynamic field statistics
(PID.TID 0000.0001) // =======================================================
(PID.TID 0000.0001) // =======================================================
(PID.TID 0000.0001) // Begin MONITOR SEAICE statistics
(PID.TID 0000.0001) // =======================================================
(PID.TID 0000.0001) %MON seaice_tsnumber              =                  1088
(PID.TID 0000.0001) %MON seaice_time_sec              =   9.7920000000000E+05
(PID.TID 0000.0001) %MON seaice_uice_max              =   4.0000000000000E-01
(PID.TID 0000.0001) %MON seaice_uice_min              =  -4.0000000000000E-01
(PID.TID 0000.0001) %MON seaice_uice_mean             =  -8.3054598624025E-03
(PID.TID 0000.0001) %MON seaice_uice_sd               =   1.9802383574176E-01
(PID.TID 0000.0001) %MON seaice_uice_del2             =   2.2931571122150E-04
(PID.TID 0000.0001) %MON seaice_vice_max              =   4.0000000000000E-01
(PID.TID 0000.0001) %MON seaice_vice_min              =  -4.0000000000000E-01
(PID.TID 0000.0001) %MON seaice_vice_mean             =  -2.1960776359499E-02
(PID.TID 0000.0001) %MON seaice_vice_sd               =   2.1302038025672E-01
(PID.TID 0000.0001) %MON seaice_vice_del2             =   2.3932563818061E-04
(PID.TID 0000.0001) %MON seaice_area_max              =   9.9999999813735E-01
(PID.TID 0000.0001) %MON seaice_area_min              =   0.0000000000000E+00
(PID.TID 0000.0001) %MON seaice_area_mean             =   6.4711214643654E-02
(PID.TID 0000.0001) %MON seaice_area_sd               =   2.2782515233715E-01
(PID.TID 0000.0001) %MON seaice_area_del2             =   3.7494282943332E-04
(PID.TID 0000.0001) %MON seaice_heff_max              =   2.4900696500554E+01
(PID.TID 0000.0001) %MON seaice_heff_min              =   0.0000000000000E+00
(PID.TID 0000.0001) %MON seaice_heff_mean             =   2.1151911258177E-01
(PID.TID 0000.0001) %MON seaice_heff_sd               =   1.0655747045368E+00
(PID.TID 0000.0001) %MON seaice_heff_del2             =   3.8150221020926E-03
(PID.TID 0000.0001) %MON seaice_hsnow_max             =   8.2247346126533E+00
(PID.TID 0000.0001) %MON seaice_hsnow_min             =   0.0000000000000E+00
(PID.TID 0000.0001) %MON seaice_hsnow_mean            =   2.3851616090415E-02
(PID.TID 0000.0001) %MON seaice_hsnow_sd              =   1.5574789252199E-01
(PID.TID 0000.0001) %MON seaice_hsnow_del2            =   1.2344006012103E-03
(PID.TID 0000.0001) // =======================================================
(PID.TID 0000.0001) // End MONITOR SEAICE statistics
(PID.TID 0000.0001) // =======================================================
 Computing Diagnostic #     86  oceQnet      Counter:       4   Parms: SM      U1      
 Computing Diagnostic #     87  oceQsw       Counter:       4   Parms: SM      U1      
 Computing Diagnostic #     84  oceFWflx     Counter:       4   Parms: SM      U1      
 Computing Diagnostic #     85  oceSflux     Counter:       4   Parms: SM      U1      
 Computing Diagnostic #     80  oceTAUX      Counter:       4   Parms: UU      U1      
           Vector  Mate for  oceTAUX      Diagnostic #     81  oceTAUY  exists 
 Computing Diagnostic #     81  oceTAUY      Counter:       4   Parms: VV      U1      
           Vector  Mate for  oceTAUY      Diagnostic #     80  oceTAUX  exists 
 Computing Diagnostic #     26  THETA        Counter:       4   Parms: SMR     MR      
 Computing Diagnostic #     27  SALT         Counter:       4   Parms: SMR     MR      
 Computing Diagnostic #     30  UVEL         Counter:       4   Parms: UUR     MR      
           Vector  Mate for  UVEL         Diagnostic #     31  VVEL     exists 
 Computing Diagnostic #     31  VVEL         Counter:       4   Parms: VVR     MR      
           Vector  Mate for  VVEL         Diagnostic #     30  UVEL     exists 
 Computing Diagnostic #    214  SIarea       Counter:       4   Parms: SM      M1      
 Computing Diagnostic #    217  SIheff       Counter:       4   Parms: SM      M1      
 Computing Diagnostic #    219  SIhsnow      Counter:       4   Parms: SM      M1      
 Computing Diagnostic #     83  sIceLoad     Counter:       4   Parms: SM      U1      
 Computing Diagnostic #    223  SIuice       Counter:       4   Parms: UU      M1      
           Vector  Mate for  SIuice       Diagnostic #    224  SIvice   exists 
 Computing Diagnostic #    224  SIvice       Counter:       4   Parms: VV      M1      
           Vector  Mate for  SIvice       Diagnostic #    223  SIuice   exists 
 Computing Diagnostic #    225  SItaux       Counter:       4   Parms: UU      U1      
           Vector  Mate for  SItaux       Diagnostic #    226  SItauy   exists 
 Computing Diagnostic #    226  SItauy       Counter:       4   Parms: VV      U1      
           Vector  Mate for  SItauy       Diagnostic #    225  SItaux   exists 
 Computing Diagnostic #    285  SIareaN      Counter:       4   Parms: SM      MX      
 Computing Diagnostic #    284  SIheffN      Counter:       4   Parms: SM      MX      
 Computing Diagnostic #    286  SIhsnowN     Counter:       4   Parms: SM      MX      
 Compute Stats, Diag. #    214  SIarea    vol(   0 ): 3.580E+14  Parms: SM      M1      
 Compute Stats, Diag. #    217  SIheff    vol(   0 ): 3.580E+14  Parms: SM      M1      
 Compute Stats, Diag. #    219  SIhsnow   vol(   0 ): 3.580E+14  Parms: SM      M1      
 Compute Stats, Diag. #     83  sIceLoad  vol(   0 ): 3.580E+14  Parms: SM      U1      
 Compute Stats, Diag. #    223  SIuice    vol(   0 ): 3.513E+14  Parms: UU      M1      
 Compute Stats, Diag. #    224  SIvice    vol(   0 ): 3.508E+14  Parms: VV      M1      
 Compute Stats, Diag. #    225  SItaux    vol(   0 ): 3.513E+14  Parms: UU      U1      
 Compute Stats, Diag. #    226  SItauy    vol(   0 ): 3.508E+14  Parms: VV      U1      
 cg2d: Sum(rhs),rhsMax =  -4.33935649457072E+01  2.86450404255305E-01
 Compute Stats, Diag. #    214  SIarea    vol(   0 ): 3.580E+14  Parms: SM      M1      
 Compute Stats, Diag. #    217  SIheff    vol(   0 ): 3.580E+14  Parms: SM      M1      
 Compute Stats, Diag. #    219  SIhsnow   vol(   0 ): 3.580E+14  Parms: SM      M1      
 Compute Stats, Diag. #     83  sIceLoad  vol(   0 ): 3.580E+14  Parms: SM      U1      
 Compute Stats, Diag. #    223  SIuice    vol(   0 ): 3.513E+14  Parms: UU      M1      
 Compute Stats, Diag. #    224  SIvice    vol(   0 ): 3.508E+14  Parms: VV      M1      
 Compute Stats, Diag. #    225  SItaux    vol(   0 ): 3.513E+14  Parms: UU      U1      
 Compute Stats, Diag. #    226  SItauy    vol(   0 ): 3.508E+14  Parms: VV      U1      
 cg2d: Sum(rhs),rhsMax =  -4.34816144672846E+01  2.86563393374241E-01
 Compute Stats, Diag. #    214  SIarea    vol(   0 ): 3.580E+14  Parms: SM      M1      
 Compute Stats, Diag. #    217  SIheff    vol(   0 ): 3.580E+14  Parms: SM      M1      
 Compute Stats, Diag. #    219  SIhsnow   vol(   0 ): 3.580E+14  Parms: SM      M1      
 Compute Stats, Diag. #     83  sIceLoad  vol(   0 ): 3.580E+14  Parms: SM      U1      
 Compute Stats, Diag. #    223  SIuice    vol(   0 ): 3.513E+14  Parms: UU      M1      
 Compute Stats, Diag. #    224  SIvice    vol(   0 ): 3.508E+14  Parms: VV      M1      
 Compute Stats, Diag. #    225  SItaux    vol(   0 ): 3.513E+14  Parms: UU      U1      
 Compute Stats, Diag. #    226  SItauy    vol(   0 ): 3.508E+14  Parms: VV      U1      
 cg2d: Sum(rhs),rhsMax =  -4.35765293993560E+01  2.86680073221728E-01
 Compute Stats, Diag. #    214  SIarea    vol(   0 ): 3.580E+14  Parms: SM      M1      
 Compute Stats, Diag. #    217  SIheff    vol(   0 ): 3.580E+14  Parms: SM      M1      
 Compute Stats, Diag. #    219  SIhsnow   vol(   0 ): 3.580E+14  Parms: SM      M1      
 Compute Stats, Diag. #     83  sIceLoad  vol(   0 ): 3.580E+14  Parms: SM      U1      
 Compute Stats, Diag. #    223  SIuice    vol(   0 ): 3.513E+14  Parms: UU      M1      
 Compute Stats, Diag. #    224  SIvice    vol(   0 ): 3.508E+14  Parms: VV      M1      
 Compute Stats, Diag. #    225  SItaux    vol(   0 ): 3.513E+14  Parms: UU      U1      
 Compute Stats, Diag. #    226  SItauy    vol(   0 ): 3.508E+14  Parms: VV      U1      
 cg2d: Sum(rhs),rhsMax =  -4.36687266398478E+01  2.86799181630918E-01
 Computing Diagnostic #     86  oceQnet      Counter:       4   Parms: SM      U1      
 Computing Diagnostic #     87  oceQsw       Counter:       4   Parms: SM      U1      
 Computing Diagnostic #     84  oceFWflx     Counter:       4   Parms: SM      U1      
 Computing Diagnostic #     85  oceSflux     Counter:       4   Parms: SM      U1      
 Computing Diagnostic #     80  oceTAUX      Counter:       4   Parms: UU      U1      
           Vector  Mate for  oceTAUX      Diagnostic #     81  oceTAUY  exists 
 Computing Diagnostic #     81  oceTAUY      Counter:       4   Parms: VV      U1      
           Vector  Mate for  oceTAUY      Diagnostic #     80  oceTAUX  exists 
 Computing Diagnostic #     26  THETA        Counter:       4   Parms: SMR     MR      
 Computing Diagnostic #     27  SALT         Counter:       4   Parms: SMR     MR      
 Computing Diagnostic #     30  UVEL         Counter:       4   Parms: UUR     MR      
           Vector  Mate for  UVEL         Diagnostic #     31  VVEL     exists 
 Computing Diagnostic #     31  VVEL         Counter:       4   Parms: VVR     MR      
           Vector  Mate for  VVEL         Diagnostic #     30  UVEL     exists 
 Computing Diagnostic #    214  SIarea       Counter:       4   Parms: SM      M1      
 Computing Diagnostic #    217  SIheff       Counter:       4   Parms: SM      M1      
 Computing Diagnostic #    219  SIhsnow      Counter:       4   Parms: SM      M1      
 Computing Diagnostic #     83  sIceLoad     Counter:       4   Parms: SM      U1      
 Computing Diagnostic #    223  SIuice       Counter:       4   Parms: UU      M1      
           Vector  Mate for  SIuice       Diagnostic #    224  SIvice   exists 
 Computing Diagnostic #    224  SIvice       Counter:       4   Parms: VV      M1      
           Vector  Mate for  SIvice       Diagnostic #    223  SIuice   exists 
 Computing Diagnostic #    225  SItaux       Counter:       4   Parms: UU      U1      
           Vector  Mate for  SItaux       Diagnostic #    226  SItauy   exists 
 Computing Diagnostic #    226  SItauy       Counter:       4   Parms: VV      U1      
           Vector  Mate for  SItauy       Diagnostic #    225  SItaux   exists 
 Computing Diagnostic #    285  SIareaN      Counter:       4   Parms: SM      MX      
 Computing Diagnostic #    284  SIheffN      Counter:       4   Parms: SM      MX      
 Computing Diagnostic #    286  SIhsnowN     Counter:       4   Parms: SM      MX      
 Compute Stats, Diag. #    214  SIarea    vol(   0 ): 3.580E+14  Parms: SM      M1      
 Compute Stats, Diag. #    217  SIheff    vol(   0 ): 3.580E+14  Parms: SM      M1      
 Compute Stats, Diag. #    219  SIhsnow   vol(   0 ): 3.580E+14  Parms: SM      M1      
 Compute Stats, Diag. #     83  sIceLoad  vol(   0 ): 3.580E+14  Parms: SM      U1      
 Compute Stats, Diag. #    223  SIuice    vol(   0 ): 3.513E+14  Parms: UU      M1      
 Compute Stats, Diag. #    224  SIvice    vol(   0 ): 3.508E+14  Parms: VV      M1      
 Compute Stats, Diag. #    225  SItaux    vol(   0 ): 3.513E+14  Parms: UU      U1      
 Compute Stats, Diag. #    226  SItauy    vol(   0 ): 3.508E+14  Parms: VV      U1      
 cg2d: Sum(rhs),rhsMax =  -4.37661302837195E+01  2.86919378750473E-01
 Compute Stats, Diag. #    214  SIarea    vol(   0 ): 3.580E+14  Parms: SM      M1      
 Compute Stats, Diag. #    217  SIheff    vol(   0 ): 3.580E+14  Parms: SM      M1      
 Compute Stats, Diag. #    219  SIhsnow   vol(   0 ): 3.580E+14  Parms: SM      M1      
 Compute Stats, Diag. #     83  sIceLoad  vol(   0 ): 3.580E+14  Parms: SM      U1      
 Compute Stats, Diag. #    223  SIuice    vol(   0 ): 3.513E+14  Parms: UU      M1      
 Compute Stats, Diag. #    224  SIvice    vol(   0 ): 3.508E+14  Parms: VV      M1      
 Compute Stats, Diag. #    225  SItaux    vol(   0 ): 3.513E+14  Parms: UU      U1      
 Compute Stats, Diag. #    226  SItauy    vol(   0 ): 3.508E+14  Parms: VV      U1      
 cg2d: Sum(rhs),rhsMax =  -4.38648285940456E+01  2.87040980880625E-01
 Compute Stats, Diag. #    214  SIarea    vol(   0 ): 3.580E+14  Parms: SM      M1      
 Compute Stats, Diag. #    217  SIheff    vol(   0 ): 3.580E+14  Parms: SM      M1      
 Compute Stats, Diag. #    219  SIhsnow   vol(   0 ): 3.580E+14  Parms: SM      M1      
 Compute Stats, Diag. #     83  sIceLoad  vol(   0 ): 3.580E+14  Parms: SM      U1      
 Compute Stats, Diag. #    223  SIuice    vol(   0 ): 3.513E+14  Parms: UU      M1      
 Compute Stats, Diag. #    224  SIvice    vol(   0 ): 3.508E+14  Parms: VV      M1      
 Compute Stats, Diag. #    225  SItaux    vol(   0 ): 3.513E+14  Parms: UU      U1      
 Compute Stats, Diag. #    226  SItauy    vol(   0 ): 3.508E+14  Parms: VV      U1      
 cg2d: Sum(rhs),rhsMax =  -4.39603153672453E+01  2.87162881771523E-01
 Compute Stats, Diag. #    214  SIarea    vol(   0 ): 3.580E+14  Parms: SM      M1      
 Compute Stats, Diag. #    217  SIheff    vol(   0 ): 3.580E+14  Parms: SM      M1      
 Compute Stats, Diag. #    219  SIhsnow   vol(   0 ): 3.580E+14  Parms: SM      M1      
 Compute Stats, Diag. #     83  sIceLoad  vol(   0 ): 3.580E+14  Parms: SM      U1      
 Compute Stats, Diag. #    223  SIuice    vol(   0 ): 3.513E+14  Parms: UU      M1      
 Compute Stats, Diag. #    224  SIvice    vol(   0 ): 3.508E+14  Parms: VV      M1      
 Compute Stats, Diag. #    225  SItaux    vol(   0 ): 3.513E+14  Parms: UU      U1      
 Compute Stats, Diag. #    226  SItauy    vol(   0 ): 3.508E+14  Parms: VV      U1      
 cg2d: Sum(rhs),rhsMax =  -4.40551466611153E+01  2.87284434706264E-01
(PID.TID 0000.0001)      cg2d_init_res =   4.29200615157150E-02
(PID.TID 0000.0001)      cg2d_iters(min,last) =      -1      24
(PID.TID 0000.0001)      cg2d_last_res =   2.39475684935718E-05
(PID.TID 0000.0001) // =======================================================
(PID.TID 0000.0001) // Begin MONITOR dynamic field statistics
(PID.TID 0000.0001) // =======================================================
(PID.TID 0000.0001) %MON time_tsnumber                =                  1096
(PID.TID 0000.0001) %MON time_secondsf                =   9.8640000000000E+05
(PID.TID 0000.0001) %MON dynstat_eta_max              =   1.0087146429512E+00
(PID.TID 0000.0001) %MON dynstat_eta_min              =  -1.8076453075208E+00
(PID.TID 0000.0001) %MON dynstat_eta_mean             =   1.3936049916937E-03
(PID.TID 0000.0001) %MON dynstat_eta_sd               =   6.2287538851116E-01
(PID.TID 0000.0001) %MON dynstat_eta_del2             =   5.2001297204352E-05
(PID.TID 0000.0001) %MON dynstat_uvel_max             =   6.6551797505044E-01
(PID.TID 0000.0001) %MON dynstat_uvel_min             =  -9.0561420164856E-01
(PID.TID 0000.0001) %MON dynstat_uvel_mean            =   1.3437049410200E-03
(PID.TID 0000.0001) %MON dynstat_uvel_sd              =   1.7903719224003E-02
(PID.TID 0000.0001) %MON dynstat_uvel_del2            =   6.9466214402711E-06
(PID.TID 0000.0001) %MON dynstat_vvel_max             =   6.8911043299738E-01
(PID.TID 0000.0001) %MON dynstat_vvel_min             =  -1.0328383163512E+00
(PID.TID 0000.0001) %MON dynstat_vvel_mean            =   1.0066158609175E-03
(PID.TID 0000.0001) %MON dynstat_vvel_sd              =   1.9384886470362E-02
(PID.TID 0000.0001) %MON dynstat_vvel_del2            =   7.2108814235670E-06
(PID.TID 0000.0001) %MON dynstat_wvel_max             =   3.9499644781801E-04
(PID.TID 0000.0001) %MON dynstat_wvel_min             =  -7.8111584500271E-04
(PID.TID 0000.0001) %MON dynstat_wvel_mean            =  -3.4134697324959E-09
(PID.TID 0000.0001) %MON dynstat_wvel_sd              =   1.5320687396228E-05
(PID.TID 0000.0001) %MON dynstat_wvel_del2            =   1.3807917076163E-08
(PID.TID 0000.0001) %MON dynstat_theta_max            =   3.1672960786032E+01
(PID.TID 0000.0001) %MON dynstat_theta_min            =  -2.0396198882862E+00
(PID.TID 0000.0001) %MON dynstat_theta_mean           =   3.5901217993080E+00
(PID.TID 0000.0001) %MON dynstat_theta_sd             =   4.4368510595850E+00
(PID.TID 0000.0001) %MON dynstat_theta_del2           =   9.0009342530460E-05
(PID.TID 0000.0001) %MON dynstat_salt_max             =   4.0711546812503E+01
(PID.TID 0000.0001) %MON dynstat_salt_min             =   5.6001240688464E+00
(PID.TID 0000.0001) %MON dynstat_salt_mean            =   3.4725559396078E+01
(PID.TID 0000.0001) %MON dynstat_salt_sd              =   3.7712610407982E-01
(PID.TID 0000.0001) %MON dynstat_salt_del2            =   3.5497288937168E-05
(PID.TID 0000.0001) %MON dynstat_sst_max              =   3.1672960786032E+01
(PID.TID 0000.0001) %MON dynstat_sst_min              =  -1.8061688882459E+00
(PID.TID 0000.0001) %MON dynstat_sst_mean             =   1.8449241203107E+01
(PID.TID 0000.0001) %MON dynstat_sst_sd               =   1.0296670159419E+01
(PID.TID 0000.0001) %MON dynstat_sst_del2             =   7.9426809751246E-04
(PID.TID 0000.0001) %MON dynstat_sss_max              =   3.9098007177655E+01
(PID.TID 0000.0001) %MON dynstat_sss_min              =   5.6001240688464E+00
(PID.TID 0000.0001) %MON dynstat_sss_mean             =   3.4701184386669E+01
(PID.TID 0000.0001) %MON dynstat_sss_sd               =   1.1842061806594E+00
(PID.TID 0000.0001) %MON dynstat_sss_del2             =   1.0758179714946E-03
(PID.TID 0000.0001) %MON forcing_qnet_max             =   7.3016119384766E+02
(PID.TID 0000.0001) %MON forcing_qnet_min             =  -7.6166613769531E+02
(PID.TID 0000.0001) %MON forcing_qnet_mean            =   4.1293242987815E+01
(PID.TID 0000.0001) %MON forcing_qnet_sd              =   1.7272402092495E+02
(PID.TID 0000.0001) %MON forcing_qnet_del2            =   2.9867226639754E-01
(PID.TID 0000.0001) %MON forcing_qsw_max              =   0.0000000000000E+00
(PID.TID 0000.0001) %MON forcing_qsw_min              =  -1.0865464920699E+02
(PID.TID 0000.0001) %MON forcing_qsw_mean             =  -1.4369425206036E+01
(PID.TID 0000.0001) %MON forcing_qsw_sd               =   2.6312514187937E+01
(PID.TID 0000.0001) %MON forcing_qsw_del2             =   1.8587880795057E-02
(PID.TID 0000.0001) %MON forcing_empmr_max            =   1.5923040919006E-03
(PID.TID 0000.0001) %MON forcing_empmr_min            =  -8.4985740482807E-02
(PID.TID 0000.0001) %MON forcing_empmr_mean           =  -3.4297904225857E-06
(PID.TID 0000.0001) %MON forcing_empmr_sd             =   3.0939886736497E-04
(PID.TID 0000.0001) %MON forcing_empmr_del2           =   4.2459736571590E-06
(PID.TID 0000.0001) %MON forcing_fu_max               =   8.3431977033615E-01
(PID.TID 0000.0001) %MON forcing_fu_min               =  -9.9056472675572E-01
(PID.TID 0000.0001) %MON forcing_fu_mean              =   3.4478234274557E-03
(PID.TID 0000.0001) %MON forcing_fu_sd                =   1.0584364361342E-01
(PID.TID 0000.0001) %MON forcing_fu_del2              =   1.3638119425304E-04
(PID.TID 0000.0001) %MON forcing_fv_max               =   5.0054001808167E-01
(PID.TID 0000.0001) %MON forcing_fv_min               =  -9.9120868995720E-01
(PID.TID 0000.0001) %MON forcing_fv_mean              =  -1.2224159310357E-02
(PID.TID 0000.0001) %MON forcing_fv_sd                =   1.0392614566019E-01
(PID.TID 0000.0001) %MON forcing_fv_del2              =   1.4207869069700E-04
(PID.TID 0000.0001) %MON trAdv_CFL_u_max              =   1.1400554007460E-02
(PID.TID 0000.0001) %MON trAdv_CFL_v_max              =   1.5676512005373E-02
(PID.TID 0000.0001) %MON trAdv_CFL_w_max              =   2.1630147477956E-02
(PID.TID 0000.0001) %MON advcfl_uvel_max              =   1.0254405278172E-02
(PID.TID 0000.0001) %MON advcfl_vvel_max              =   1.4708262729502E-02
(PID.TID 0000.0001) %MON advcfl_wvel_max              =   2.3788374779396E-02
(PID.TID 0000.0001) %MON advcfl_W_hf_max              =   2.4948867571244E-02
(PID.TID 0000.0001) %MON pe_b_mean                    =   5.1034355237473E-04
(PID.TID 0000.0001) %MON ke_max                       =   5.4941800966051E-01
(PID.TID 0000.0001) %MON ke_mean                      =   3.3712071528846E-04
(PID.TID 0000.0001) %MON ke_vol                       =   1.3349983747952E+18
(PID.TID 0000.0001) %MON vort_r_min                   =  -2.0111904152387E-05
(PID.TID 0000.0001) %MON vort_r_max                   =   2.3524223726520E-05
(PID.TID 0000.0001) %MON vort_a_mean                  =  -1.9727864647440E-05
(PID.TID 0000.0001) %MON vort_a_sd                    =   7.4542974356808E-05
(PID.TID 0000.0001) %MON vort_p_mean                  =  -2.1760525504977E-05
(PID.TID 0000.0001) %MON vort_p_sd                    =   9.7246708908144E-05
(PID.TID 0000.0001) %MON surfExpan_theta_mean         =   1.6663794016360E-07
(PID.TID 0000.0001) %MON surfExpan_salt_mean          =   4.8744505270536E-08
(PID.TID 0000.0001) // =======================================================
(PID.TID 0000.0001) // End MONITOR dynamic field statistics
(PID.TID 0000.0001) // =======================================================
(PID.TID 0000.0001) // =======================================================
(PID.TID 0000.0001) // Begin MONITOR SEAICE statistics
(PID.TID 0000.0001) // =======================================================
(PID.TID 0000.0001) %MON seaice_tsnumber              =                  1096
(PID.TID 0000.0001) %MON seaice_time_sec              =   9.8640000000000E+05
(PID.TID 0000.0001) %MON seaice_uice_max              =   4.0000000000000E-01
(PID.TID 0000.0001) %MON seaice_uice_min              =  -4.0000000000000E-01
(PID.TID 0000.0001) %MON seaice_uice_mean             =  -8.3054598624025E-03
(PID.TID 0000.0001) %MON seaice_uice_sd               =   1.9802383574176E-01
(PID.TID 0000.0001) %MON seaice_uice_del2             =   2.2931571122150E-04
(PID.TID 0000.0001) %MON seaice_vice_max              =   4.0000000000000E-01
(PID.TID 0000.0001) %MON seaice_vice_min              =  -4.0000000000000E-01
(PID.TID 0000.0001) %MON seaice_vice_mean             =  -2.1960776359499E-02
(PID.TID 0000.0001) %MON seaice_vice_sd               =   2.1302038025672E-01
(PID.TID 0000.0001) %MON seaice_vice_del2             =   2.3932563818061E-04
(PID.TID 0000.0001) %MON seaice_area_max              =   9.9999999813735E-01
(PID.TID 0000.0001) %MON seaice_area_min              =   0.0000000000000E+00
(PID.TID 0000.0001) %MON seaice_area_mean             =   6.4681697704647E-02
(PID.TID 0000.0001) %MON seaice_area_sd               =   2.2777081683685E-01
(PID.TID 0000.0001) %MON seaice_area_del2             =   3.7448654507625E-04
(PID.TID 0000.0001) %MON seaice_heff_max              =   2.4899154755636E+01
(PID.TID 0000.0001) %MON seaice_heff_min              =   0.0000000000000E+00
(PID.TID 0000.0001) %MON seaice_heff_mean             =   2.1149651990981E-01
(PID.TID 0000.0001) %MON seaice_heff_sd               =   1.0655574242811E+00
(PID.TID 0000.0001) %MON seaice_heff_del2             =   3.8144734588059E-03
(PID.TID 0000.0001) %MON seaice_hsnow_max             =   8.2242204315262E+00
(PID.TID 0000.0001) %MON seaice_hsnow_min             =   0.0000000000000E+00
(PID.TID 0000.0001) %MON seaice_hsnow_mean            =   2.3858252179982E-02
(PID.TID 0000.0001) %MON seaice_hsnow_sd              =   1.5575226809542E-01
(PID.TID 0000.0001) %MON seaice_hsnow_del2            =   1.2342612986773E-03
(PID.TID 0000.0001) // =======================================================
(PID.TID 0000.0001) // End MONITOR SEAICE statistics
(PID.TID 0000.0001) // =======================================================
 Computing Diagnostic #     86  oceQnet      Counter:       4   Parms: SM      U1      
 Computing Diagnostic #     87  oceQsw       Counter:       4   Parms: SM      U1      
 Computing Diagnostic #     84  oceFWflx     Counter:       4   Parms: SM      U1      
 Computing Diagnostic #     85  oceSflux     Counter:       4   Parms: SM      U1      
 Computing Diagnostic #     80  oceTAUX      Counter:       4   Parms: UU      U1      
           Vector  Mate for  oceTAUX      Diagnostic #     81  oceTAUY  exists 
 Computing Diagnostic #     81  oceTAUY      Counter:       4   Parms: VV      U1      
           Vector  Mate for  oceTAUY      Diagnostic #     80  oceTAUX  exists 
 Computing Diagnostic #     26  THETA        Counter:       4   Parms: SMR     MR      
 Computing Diagnostic #     27  SALT         Counter:       4   Parms: SMR     MR      
 Computing Diagnostic #     30  UVEL         Counter:       4   Parms: UUR     MR      
           Vector  Mate for  UVEL         Diagnostic #     31  VVEL     exists 
 Computing Diagnostic #     31  VVEL         Counter:       4   Parms: VVR     MR      
           Vector  Mate for  VVEL         Diagnostic #     30  UVEL     exists 
 Computing Diagnostic #    214  SIarea       Counter:       4   Parms: SM      M1      
 Computing Diagnostic #    217  SIheff       Counter:       4   Parms: SM      M1      
 Computing Diagnostic #    219  SIhsnow      Counter:       4   Parms: SM      M1      
 Computing Diagnostic #     83  sIceLoad     Counter:       4   Parms: SM      U1      
 Computing Diagnostic #    223  SIuice       Counter:       4   Parms: UU      M1      
           Vector  Mate for  SIuice       Diagnostic #    224  SIvice   exists 
 Computing Diagnostic #    224  SIvice       Counter:       4   Parms: VV      M1      
           Vector  Mate for  SIvice       Diagnostic #    223  SIuice   exists 
 Computing Diagnostic #    225  SItaux       Counter:       4   Parms: UU      U1      
           Vector  Mate for  SItaux       Diagnostic #    226  SItauy   exists 
 Computing Diagnostic #    226  SItauy       Counter:       4   Parms: VV      U1      
           Vector  Mate for  SItauy       Diagnostic #    225  SItaux   exists 
 Computing Diagnostic #    285  SIareaN      Counter:       4   Parms: SM      MX      
 Computing Diagnostic #    284  SIheffN      Counter:       4   Parms: SM      MX      
 Computing Diagnostic #    286  SIhsnowN     Counter:       4   Parms: SM      MX      
 Compute Stats, Diag. #    214  SIarea    vol(   0 ): 3.580E+14  Parms: SM      M1      
 Compute Stats, Diag. #    217  SIheff    vol(   0 ): 3.580E+14  Parms: SM      M1      
 Compute Stats, Diag. #    219  SIhsnow   vol(   0 ): 3.580E+14  Parms: SM      M1      
 Compute Stats, Diag. #     83  sIceLoad  vol(   0 ): 3.580E+14  Parms: SM      U1      
 Compute Stats, Diag. #    223  SIuice    vol(   0 ): 3.513E+14  Parms: UU      M1      
 Compute Stats, Diag. #    224  SIvice    vol(   0 ): 3.508E+14  Parms: VV      M1      
 Compute Stats, Diag. #    225  SItaux    vol(   0 ): 3.513E+14  Parms: UU      U1      
 Compute Stats, Diag. #    226  SItauy    vol(   0 ): 3.508E+14  Parms: VV      U1      
 cg2d: Sum(rhs),rhsMax =  -4.41525162492376E+01  2.87404354015078E-01
 Compute Stats, Diag. #    214  SIarea    vol(   0 ): 3.580E+14  Parms: SM      M1      
 Compute Stats, Diag. #    217  SIheff    vol(   0 ): 3.580E+14  Parms: SM      M1      
 Compute Stats, Diag. #    219  SIhsnow   vol(   0 ): 3.580E+14  Parms: SM      M1      
 Compute Stats, Diag. #     83  sIceLoad  vol(   0 ): 3.580E+14  Parms: SM      U1      
 Compute Stats, Diag. #    223  SIuice    vol(   0 ): 3.513E+14  Parms: UU      M1      
 Compute Stats, Diag. #    224  SIvice    vol(   0 ): 3.508E+14  Parms: VV      M1      
 Compute Stats, Diag. #    225  SItaux    vol(   0 ): 3.513E+14  Parms: UU      U1      
 Compute Stats, Diag. #    226  SItauy    vol(   0 ): 3.508E+14  Parms: VV      U1      
 cg2d: Sum(rhs),rhsMax =  -4.42456552950247E+01  2.87523279320170E-01
 Compute Stats, Diag. #    214  SIarea    vol(   0 ): 3.580E+14  Parms: SM      M1      
 Compute Stats, Diag. #    217  SIheff    vol(   0 ): 3.580E+14  Parms: SM      M1      
 Compute Stats, Diag. #    219  SIhsnow   vol(   0 ): 3.580E+14  Parms: SM      M1      
 Compute Stats, Diag. #     83  sIceLoad  vol(   0 ): 3.580E+14  Parms: SM      U1      
 Compute Stats, Diag. #    223  SIuice    vol(   0 ): 3.513E+14  Parms: UU      M1      
 Compute Stats, Diag. #    224  SIvice    vol(   0 ): 3.508E+14  Parms: VV      M1      
 Compute Stats, Diag. #    225  SItaux    vol(   0 ): 3.513E+14  Parms: UU      U1      
 Compute Stats, Diag. #    226  SItauy    vol(   0 ): 3.508E+14  Parms: VV      U1      
 cg2d: Sum(rhs),rhsMax =  -4.43373018742344E+01  2.87640969068306E-01
 Compute Stats, Diag. #    214  SIarea    vol(   0 ): 3.580E+14  Parms: SM      M1      
 Compute Stats, Diag. #    217  SIheff    vol(   0 ): 3.580E+14  Parms: SM      M1      
 Compute Stats, Diag. #    219  SIhsnow   vol(   0 ): 3.580E+14  Parms: SM      M1      
 Compute Stats, Diag. #     83  sIceLoad  vol(   0 ): 3.580E+14  Parms: SM      U1      
 Compute Stats, Diag. #    223  SIuice    vol(   0 ): 3.513E+14  Parms: UU      M1      
 Compute Stats, Diag. #    224  SIvice    vol(   0 ): 3.508E+14  Parms: VV      M1      
 Compute Stats, Diag. #    225  SItaux    vol(   0 ): 3.513E+14  Parms: UU      U1      
 Compute Stats, Diag. #    226  SItauy    vol(   0 ): 3.508E+14  Parms: VV      U1      
 cg2d: Sum(rhs),rhsMax =  -4.44258187716265E+01  2.87755921257240E-01
 Computing Diagnostic #     86  oceQnet      Counter:       4   Parms: SM      U1      
 Computing Diagnostic #     87  oceQsw       Counter:       4   Parms: SM      U1      
 Computing Diagnostic #     84  oceFWflx     Counter:       4   Parms: SM      U1      
 Computing Diagnostic #     85  oceSflux     Counter:       4   Parms: SM      U1      
 Computing Diagnostic #     80  oceTAUX      Counter:       4   Parms: UU      U1      
           Vector  Mate for  oceTAUX      Diagnostic #     81  oceTAUY  exists 
 Computing Diagnostic #     81  oceTAUY      Counter:       4   Parms: VV      U1      
           Vector  Mate for  oceTAUY      Diagnostic #     80  oceTAUX  exists 
 Computing Diagnostic #     26  THETA        Counter:       4   Parms: SMR     MR      
 Computing Diagnostic #     27  SALT         Counter:       4   Parms: SMR     MR      
 Computing Diagnostic #     30  UVEL         Counter:       4   Parms: UUR     MR      
           Vector  Mate for  UVEL         Diagnostic #     31  VVEL     exists 
 Computing Diagnostic #     31  VVEL         Counter:       4   Parms: VVR     MR      
           Vector  Mate for  VVEL         Diagnostic #     30  UVEL     exists 
 Computing Diagnostic #    214  SIarea       Counter:       4   Parms: SM      M1      
 Computing Diagnostic #    217  SIheff       Counter:       4   Parms: SM      M1      
 Computing Diagnostic #    219  SIhsnow      Counter:       4   Parms: SM      M1      
 Computing Diagnostic #     83  sIceLoad     Counter:       4   Parms: SM      U1      
 Computing Diagnostic #    223  SIuice       Counter:       4   Parms: UU      M1      
           Vector  Mate for  SIuice       Diagnostic #    224  SIvice   exists 
 Computing Diagnostic #    224  SIvice       Counter:       4   Parms: VV      M1      
           Vector  Mate for  SIvice       Diagnostic #    223  SIuice   exists 
 Computing Diagnostic #    225  SItaux       Counter:       4   Parms: UU      U1      
           Vector  Mate for  SItaux       Diagnostic #    226  SItauy   exists 
 Computing Diagnostic #    226  SItauy       Counter:       4   Parms: VV      U1      
           Vector  Mate for  SItauy       Diagnostic #    225  SItaux   exists 
 Computing Diagnostic #    285  SIareaN      Counter:       4   Parms: SM      MX      
 Computing Diagnostic #    284  SIheffN      Counter:       4   Parms: SM      MX      
 Computing Diagnostic #    286  SIhsnowN     Counter:       4   Parms: SM      MX      
 Compute Stats, Diag. #    214  SIarea    vol(   0 ): 3.580E+14  Parms: SM      M1      
 Compute Stats, Diag. #    217  SIheff    vol(   0 ): 3.580E+14  Parms: SM      M1      
 Compute Stats, Diag. #    219  SIhsnow   vol(   0 ): 3.580E+14  Parms: SM      M1      
 Compute Stats, Diag. #     83  sIceLoad  vol(   0 ): 3.580E+14  Parms: SM      U1      
 Compute Stats, Diag. #    223  SIuice    vol(   0 ): 3.513E+14  Parms: UU      M1      
 Compute Stats, Diag. #    224  SIvice    vol(   0 ): 3.508E+14  Parms: VV      M1      
 Compute Stats, Diag. #    225  SItaux    vol(   0 ): 3.513E+14  Parms: UU      U1      
 Compute Stats, Diag. #    226  SItauy    vol(   0 ): 3.508E+14  Parms: VV      U1      
 cg2d: Sum(rhs),rhsMax =  -4.45174836071215E+01  2.87865795965841E-01
 Compute Stats, Diag. #    214  SIarea    vol(   0 ): 3.580E+14  Parms: SM      M1      
 Compute Stats, Diag. #    217  SIheff    vol(   0 ): 3.580E+14  Parms: SM      M1      
 Compute Stats, Diag. #    219  SIhsnow   vol(   0 ): 3.580E+14  Parms: SM      M1      
 Compute Stats, Diag. #     83  sIceLoad  vol(   0 ): 3.580E+14  Parms: SM      U1      
 Compute Stats, Diag. #    223  SIuice    vol(   0 ): 3.513E+14  Parms: UU      M1      
 Compute Stats, Diag. #    224  SIvice    vol(   0 ): 3.508E+14  Parms: VV      M1      
 Compute Stats, Diag. #    225  SItaux    vol(   0 ): 3.513E+14  Parms: UU      U1      
 Compute Stats, Diag. #    226  SItauy    vol(   0 ): 3.508E+14  Parms: VV      U1      
 cg2d: Sum(rhs),rhsMax =  -4.46086134678642E+01  2.87969131342033E-01
 Compute Stats, Diag. #    214  SIarea    vol(   0 ): 3.580E+14  Parms: SM      M1      
 Compute Stats, Diag. #    217  SIheff    vol(   0 ): 3.580E+14  Parms: SM      M1      
 Compute Stats, Diag. #    219  SIhsnow   vol(   0 ): 3.580E+14  Parms: SM      M1      
 Compute Stats, Diag. #     83  sIceLoad  vol(   0 ): 3.580E+14  Parms: SM      U1      
 Compute Stats, Diag. #    223  SIuice    vol(   0 ): 3.513E+14  Parms: UU      M1      
 Compute Stats, Diag. #    224  SIvice    vol(   0 ): 3.508E+14  Parms: VV      M1      
 Compute Stats, Diag. #    225  SItaux    vol(   0 ): 3.513E+14  Parms: UU      U1      
 Compute Stats, Diag. #    226  SItauy    vol(   0 ): 3.508E+14  Parms: VV      U1      
 cg2d: Sum(rhs),rhsMax =  -4.47019221505231E+01  2.88066157797652E-01
 Compute Stats, Diag. #    214  SIarea    vol(   0 ): 3.580E+14  Parms: SM      M1      
 Compute Stats, Diag. #    217  SIheff    vol(   0 ): 3.580E+14  Parms: SM      M1      
 Compute Stats, Diag. #    219  SIhsnow   vol(   0 ): 3.580E+14  Parms: SM      M1      
 Compute Stats, Diag. #     83  sIceLoad  vol(   0 ): 3.580E+14  Parms: SM      U1      
 Compute Stats, Diag. #    223  SIuice    vol(   0 ): 3.513E+14  Parms: UU      M1      
 Compute Stats, Diag. #    224  SIvice    vol(   0 ): 3.508E+14  Parms: VV      M1      
 Compute Stats, Diag. #    225  SItaux    vol(   0 ): 3.513E+14  Parms: UU      U1      
 Compute Stats, Diag. #    226  SItauy    vol(   0 ): 3.508E+14  Parms: VV      U1      
 cg2d: Sum(rhs),rhsMax =  -4.47847367932841E+01  2.88156936545122E-01
(PID.TID 0000.0001)      cg2d_init_res =   4.16454951270574E-02
(PID.TID 0000.0001)      cg2d_iters(min,last) =      -1      24
(PID.TID 0000.0001)      cg2d_last_res =   2.28226834832923E-05
(PID.TID 0000.0001) // =======================================================
(PID.TID 0000.0001) // Begin MONITOR dynamic field statistics
(PID.TID 0000.0001) // =======================================================
(PID.TID 0000.0001) %MON time_tsnumber                =                  1104
(PID.TID 0000.0001) %MON time_secondsf                =   9.9360000000000E+05
(PID.TID 0000.0001) %MON dynstat_eta_max              =   1.0085840563872E+00
(PID.TID 0000.0001) %MON dynstat_eta_min              =  -1.8097249924510E+00
(PID.TID 0000.0001) %MON dynstat_eta_mean             =   1.4166842577304E-03
(PID.TID 0000.0001) %MON dynstat_eta_sd               =   6.2312493379539E-01
(PID.TID 0000.0001) %MON dynstat_eta_del2             =   5.1981798601749E-05
(PID.TID 0000.0001) %MON dynstat_uvel_max             =   6.6398422320714E-01
(PID.TID 0000.0001) %MON dynstat_uvel_min             =  -9.0100143855715E-01
(PID.TID 0000.0001) %MON dynstat_uvel_mean            =   1.3500340162728E-03
(PID.TID 0000.0001) %MON dynstat_uvel_sd              =   1.7906911510244E-02
(PID.TID 0000.0001) %MON dynstat_uvel_del2            =   6.9422610753268E-06
(PID.TID 0000.0001) %MON dynstat_vvel_max             =   7.0083437429599E-01
(PID.TID 0000.0001) %MON dynstat_vvel_min             =  -1.0298978321067E+00
(PID.TID 0000.0001) %MON dynstat_vvel_mean            =   1.0125456263023E-03
(PID.TID 0000.0001) %MON dynstat_vvel_sd              =   1.9407660629419E-02
(PID.TID 0000.0001) %MON dynstat_vvel_del2            =   7.2124606781996E-06
(PID.TID 0000.0001) %MON dynstat_wvel_max             =   3.5885467195289E-04
(PID.TID 0000.0001) %MON dynstat_wvel_min             =  -7.8173994600261E-04
(PID.TID 0000.0001) %MON dynstat_wvel_mean            =  -4.1316286437021E-09
(PID.TID 0000.0001) %MON dynstat_wvel_sd              =   1.5303874254639E-05
(PID.TID 0000.0001) %MON dynstat_wvel_del2            =   1.3868122585539E-08
(PID.TID 0000.0001) %MON dynstat_theta_max            =   3.1656551733252E+01
(PID.TID 0000.0001) %MON dynstat_theta_min            =  -2.0396148529154E+00
(PID.TID 0000.0001) %MON dynstat_theta_mean           =   3.5901019204852E+00
(PID.TID 0000.0001) %MON dynstat_theta_sd             =   4.4367928382804E+00
(PID.TID 0000.0001) %MON dynstat_theta_del2           =   8.9967908714540E-05
(PID.TID 0000.0001) %MON dynstat_salt_max             =   4.0711547011544E+01
(PID.TID 0000.0001) %MON dynstat_salt_min             =   5.7895253810393E+00
(PID.TID 0000.0001) %MON dynstat_salt_mean            =   3.4725559191706E+01
(PID.TID 0000.0001) %MON dynstat_salt_sd              =   3.7712685068567E-01
(PID.TID 0000.0001) %MON dynstat_salt_del2            =   3.5568924903898E-05
(PID.TID 0000.0001) %MON dynstat_sst_max              =   3.1656551733252E+01
(PID.TID 0000.0001) %MON dynstat_sst_min              =  -1.8049896304540E+00
(PID.TID 0000.0001) %MON dynstat_sst_mean             =   1.8444102469480E+01
(PID.TID 0000.0001) %MON dynstat_sst_sd               =   1.0296901932401E+01
(PID.TID 0000.0001) %MON dynstat_sst_del2             =   7.9379632841602E-04
(PID.TID 0000.0001) %MON dynstat_sss_max              =   3.9097960177949E+01
(PID.TID 0000.0001) %MON dynstat_sss_min              =   5.7895253810393E+00
(PID.TID 0000.0001) %MON dynstat_sss_mean             =   3.4701193268857E+01
(PID.TID 0000.0001) %MON dynstat_sss_sd               =   1.1843481092459E+00
(PID.TID 0000.0001) %MON dynstat_sss_del2             =   1.0766209726698E-03
(PID.TID 0000.0001) %MON forcing_qnet_max             =   7.7049841308594E+02
(PID.TID 0000.0001) %MON forcing_qnet_min             =  -7.1577044677734E+02
(PID.TID 0000.0001) %MON forcing_qnet_mean            =   4.0203742627875E+01
(PID.TID 0000.0001) %MON forcing_qnet_sd              =   1.6985012907007E+02
(PID.TID 0000.0001) %MON forcing_qnet_del2            =   2.9417610581246E-01
(PID.TID 0000.0001) %MON forcing_qsw_max              =   0.0000000000000E+00
(PID.TID 0000.0001) %MON forcing_qsw_min              =  -1.1007338774094E+02
(PID.TID 0000.0001) %MON forcing_qsw_mean             =  -1.3474189614667E+01
(PID.TID 0000.0001) %MON forcing_qsw_sd               =   2.4828121558331E+01
(PID.TID 0000.0001) %MON forcing_qsw_del2             =   1.8262882581234E-02
(PID.TID 0000.0001) %MON forcing_empmr_max            =   2.0388157572597E-03
(PID.TID 0000.0001) %MON forcing_empmr_min            =  -4.9884483218193E-02
(PID.TID 0000.0001) %MON forcing_empmr_mean           =  -2.9951807784640E-06
(PID.TID 0000.0001) %MON forcing_empmr_sd             =   2.5201493476015E-04
(PID.TID 0000.0001) %MON forcing_empmr_del2           =   2.9549443886340E-06
(PID.TID 0000.0001) %MON forcing_fu_max               =   7.7562278509140E-01
(PID.TID 0000.0001) %MON forcing_fu_min               =  -1.0289961734546E+00
(PID.TID 0000.0001) %MON forcing_fu_mean              =   3.3608948417267E-03
(PID.TID 0000.0001) %MON forcing_fu_sd                =   1.0565249382572E-01
(PID.TID 0000.0001) %MON forcing_fu_del2              =   1.3527977305045E-04
(PID.TID 0000.0001) %MON forcing_fv_max               =   4.8872725665570E-01
(PID.TID 0000.0001) %MON forcing_fv_min               =  -1.0297634891704E+00
(PID.TID 0000.0001) %MON forcing_fv_mean              =  -1.2515074775461E-02
(PID.TID 0000.0001) %MON forcing_fv_sd                =   1.0420807338219E-01
(PID.TID 0000.0001) %MON forcing_fv_del2              =   1.4166288009852E-04
(PID.TID 0000.0001) %MON trAdv_CFL_u_max              =   1.1400750419742E-02
(PID.TID 0000.0001) %MON trAdv_CFL_v_max              =   1.5923597818040E-02
(PID.TID 0000.0001) %MON trAdv_CFL_w_max              =   2.1745778138035E-02
(PID.TID 0000.0001) %MON advcfl_uvel_max              =   1.0216868333726E-02
(PID.TID 0000.0001) %MON advcfl_vvel_max              =   1.4958496655138E-02
(PID.TID 0000.0001) %MON advcfl_wvel_max              =   2.3898356877331E-02
(PID.TID 0000.0001) %MON advcfl_W_hf_max              =   2.5064518683525E-02
(PID.TID 0000.0001) %MON pe_b_mean                    =   5.1075263667194E-04
(PID.TID 0000.0001) %MON ke_max                       =   5.4744510627275E-01
(PID.TID 0000.0001) %MON ke_mean                      =   3.3761589188431E-04
(PID.TID 0000.0001) %MON ke_vol                       =   1.3349983831940E+18
(PID.TID 0000.0001) %MON vort_r_min                   =  -2.0578256192451E-05
(PID.TID 0000.0001) %MON vort_r_max                   =   2.3902147363715E-05
(PID.TID 0000.0001) %MON vort_a_mean                  =  -1.9727864647440E-05
(PID.TID 0000.0001) %MON vort_a_sd                    =   7.4542974750242E-05
(PID.TID 0000.0001) %MON vort_p_mean                  =  -2.1760525356342E-05
(PID.TID 0000.0001) %MON vort_p_sd                    =   9.7246770718353E-05
(PID.TID 0000.0001) %MON surfExpan_theta_mean         =   1.4942603940451E-07
(PID.TID 0000.0001) %MON surfExpan_salt_mean          =   4.8294982949865E-08
(PID.TID 0000.0001) // =======================================================
(PID.TID 0000.0001) // End MONITOR dynamic field statistics
(PID.TID 0000.0001) // =======================================================
(PID.TID 0000.0001) // =======================================================
(PID.TID 0000.0001) // Begin MONITOR SEAICE statistics
(PID.TID 0000.0001) // =======================================================
(PID.TID 0000.0001) %MON seaice_tsnumber              =                  1104
(PID.TID 0000.0001) %MON seaice_time_sec              =   9.9360000000000E+05
(PID.TID 0000.0001) %MON seaice_uice_max              =   4.0000000000000E-01
(PID.TID 0000.0001) %MON seaice_uice_min              =  -4.0000000000000E-01
(PID.TID 0000.0001) %MON seaice_uice_mean             =  -8.3054598624025E-03
(PID.TID 0000.0001) %MON seaice_uice_sd               =   1.9802383574176E-01
(PID.TID 0000.0001) %MON seaice_uice_del2             =   2.2931571122150E-04
(PID.TID 0000.0001) %MON seaice_vice_max              =   4.0000000000000E-01
(PID.TID 0000.0001) %MON seaice_vice_min              =  -4.0000000000000E-01
(PID.TID 0000.0001) %MON seaice_vice_mean             =  -2.1960776359499E-02
(PID.TID 0000.0001) %MON seaice_vice_sd               =   2.1302038025672E-01
(PID.TID 0000.0001) %MON seaice_vice_del2             =   2.3932563818061E-04
(PID.TID 0000.0001) %MON seaice_area_max              =   9.9999999813735E-01
(PID.TID 0000.0001) %MON seaice_area_min              =   0.0000000000000E+00
(PID.TID 0000.0001) %MON seaice_area_mean             =   6.4656160412267E-02
(PID.TID 0000.0001) %MON seaice_area_sd               =   2.2772378850936E-01
(PID.TID 0000.0001) %MON seaice_area_del2             =   3.7402684632214E-04
(PID.TID 0000.0001) %MON seaice_heff_max              =   2.4897651688894E+01
(PID.TID 0000.0001) %MON seaice_heff_min              =   0.0000000000000E+00
(PID.TID 0000.0001) %MON seaice_heff_mean             =   2.1147595501798E-01
(PID.TID 0000.0001) %MON seaice_heff_sd               =   1.0655406654635E+00
(PID.TID 0000.0001) %MON seaice_heff_del2             =   3.8139329822040E-03
(PID.TID 0000.0001) %MON seaice_hsnow_max             =   8.2237206575519E+00
(PID.TID 0000.0001) %MON seaice_hsnow_min             =   0.0000000000000E+00
(PID.TID 0000.0001) %MON seaice_hsnow_mean            =   2.3864396310390E-02
(PID.TID 0000.0001) %MON seaice_hsnow_sd              =   1.5575609475864E-01
(PID.TID 0000.0001) %MON seaice_hsnow_del2            =   1.2341136899586E-03
(PID.TID 0000.0001) // =======================================================
(PID.TID 0000.0001) // End MONITOR SEAICE statistics
(PID.TID 0000.0001) // =======================================================
 Computing Diagnostic #     86  oceQnet      Counter:       4   Parms: SM      U1      
 Computing Diagnostic #     87  oceQsw       Counter:       4   Parms: SM      U1      
 Computing Diagnostic #     84  oceFWflx     Counter:       4   Parms: SM      U1      
 Computing Diagnostic #     85  oceSflux     Counter:       4   Parms: SM      U1      
 Computing Diagnostic #     80  oceTAUX      Counter:       4   Parms: UU      U1      
           Vector  Mate for  oceTAUX      Diagnostic #     81  oceTAUY  exists 
 Computing Diagnostic #     81  oceTAUY      Counter:       4   Parms: VV      U1      
           Vector  Mate for  oceTAUY      Diagnostic #     80  oceTAUX  exists 
 Computing Diagnostic #     26  THETA        Counter:       4   Parms: SMR     MR      
 Computing Diagnostic #     27  SALT         Counter:       4   Parms: SMR     MR      
 Computing Diagnostic #     30  UVEL         Counter:       4   Parms: UUR     MR      
           Vector  Mate for  UVEL         Diagnostic #     31  VVEL     exists 
 Computing Diagnostic #     31  VVEL         Counter:       4   Parms: VVR     MR      
           Vector  Mate for  VVEL         Diagnostic #     30  UVEL     exists 
 Computing Diagnostic #    214  SIarea       Counter:       4   Parms: SM      M1      
 Computing Diagnostic #    217  SIheff       Counter:       4   Parms: SM      M1      
 Computing Diagnostic #    219  SIhsnow      Counter:       4   Parms: SM      M1      
 Computing Diagnostic #     83  sIceLoad     Counter:       4   Parms: SM      U1      
 Computing Diagnostic #    223  SIuice       Counter:       4   Parms: UU      M1      
           Vector  Mate for  SIuice       Diagnostic #    224  SIvice   exists 
 Computing Diagnostic #    224  SIvice       Counter:       4   Parms: VV      M1      
           Vector  Mate for  SIvice       Diagnostic #    223  SIuice   exists 
 Computing Diagnostic #    225  SItaux       Counter:       4   Parms: UU      U1      
           Vector  Mate for  SItaux       Diagnostic #    226  SItauy   exists 
 Computing Diagnostic #    226  SItauy       Counter:       4   Parms: VV      U1      
           Vector  Mate for  SItauy       Diagnostic #    225  SItaux   exists 
 Computing Diagnostic #    285  SIareaN      Counter:       4   Parms: SM      MX      
 Computing Diagnostic #    284  SIheffN      Counter:       4   Parms: SM      MX      
 Computing Diagnostic #    286  SIhsnowN     Counter:       4   Parms: SM      MX      
 Compute Stats, Diag. #    214  SIarea    vol(   0 ): 3.580E+14  Parms: SM      M1      
 Compute Stats, Diag. #    217  SIheff    vol(   0 ): 3.580E+14  Parms: SM      M1      
 Compute Stats, Diag. #    219  SIhsnow   vol(   0 ): 3.580E+14  Parms: SM      M1      
 Compute Stats, Diag. #     83  sIceLoad  vol(   0 ): 3.580E+14  Parms: SM      U1      
 Compute Stats, Diag. #    223  SIuice    vol(   0 ): 3.513E+14  Parms: UU      M1      
 Compute Stats, Diag. #    224  SIvice    vol(   0 ): 3.508E+14  Parms: VV      M1      
 Compute Stats, Diag. #    225  SItaux    vol(   0 ): 3.513E+14  Parms: UU      U1      
 Compute Stats, Diag. #    226  SItauy    vol(   0 ): 3.508E+14  Parms: VV      U1      
 cg2d: Sum(rhs),rhsMax =  -4.48663556979042E+01  2.88240415297617E-01
 Compute Stats, Diag. #    214  SIarea    vol(   0 ): 3.580E+14  Parms: SM      M1      
 Compute Stats, Diag. #    217  SIheff    vol(   0 ): 3.580E+14  Parms: SM      M1      
 Compute Stats, Diag. #    219  SIhsnow   vol(   0 ): 3.580E+14  Parms: SM      M1      
 Compute Stats, Diag. #     83  sIceLoad  vol(   0 ): 3.580E+14  Parms: SM      U1      
 Compute Stats, Diag. #    223  SIuice    vol(   0 ): 3.513E+14  Parms: UU      M1      
 Compute Stats, Diag. #    224  SIvice    vol(   0 ): 3.508E+14  Parms: VV      M1      
 Compute Stats, Diag. #    225  SItaux    vol(   0 ): 3.513E+14  Parms: UU      U1      
 Compute Stats, Diag. #    226  SItauy    vol(   0 ): 3.508E+14  Parms: VV      U1      
 cg2d: Sum(rhs),rhsMax =  -4.49567976460826E+01  2.88316237957074E-01
 Compute Stats, Diag. #    214  SIarea    vol(   0 ): 3.580E+14  Parms: SM      M1      
 Compute Stats, Diag. #    217  SIheff    vol(   0 ): 3.580E+14  Parms: SM      M1      
 Compute Stats, Diag. #    219  SIhsnow   vol(   0 ): 3.580E+14  Parms: SM      M1      
 Compute Stats, Diag. #     83  sIceLoad  vol(   0 ): 3.580E+14  Parms: SM      U1      
 Compute Stats, Diag. #    223  SIuice    vol(   0 ): 3.513E+14  Parms: UU      M1      
 Compute Stats, Diag. #    224  SIvice    vol(   0 ): 3.508E+14  Parms: VV      M1      
 Compute Stats, Diag. #    225  SItaux    vol(   0 ): 3.513E+14  Parms: UU      U1      
 Compute Stats, Diag. #    226  SItauy    vol(   0 ): 3.508E+14  Parms: VV      U1      
 cg2d: Sum(rhs),rhsMax =  -4.50506351690958E+01  2.88385650154147E-01
 Compute Stats, Diag. #    214  SIarea    vol(   0 ): 3.580E+14  Parms: SM      M1      
 Compute Stats, Diag. #    217  SIheff    vol(   0 ): 3.580E+14  Parms: SM      M1      
 Compute Stats, Diag. #    219  SIhsnow   vol(   0 ): 3.580E+14  Parms: SM      M1      
 Compute Stats, Diag. #     83  sIceLoad  vol(   0 ): 3.580E+14  Parms: SM      U1      
 Compute Stats, Diag. #    223  SIuice    vol(   0 ): 3.513E+14  Parms: UU      M1      
 Compute Stats, Diag. #    224  SIvice    vol(   0 ): 3.508E+14  Parms: VV      M1      
 Compute Stats, Diag. #    225  SItaux    vol(   0 ): 3.513E+14  Parms: UU      U1      
 Compute Stats, Diag. #    226  SItauy    vol(   0 ): 3.508E+14  Parms: VV      U1      
 cg2d: Sum(rhs),rhsMax =  -4.51456149398308E+01  2.88437805745039E-01
 Computing Diagnostic #     86  oceQnet      Counter:       4   Parms: SM      U1      
 Computing Diagnostic #     87  oceQsw       Counter:       4   Parms: SM      U1      
 Computing Diagnostic #     84  oceFWflx     Counter:       4   Parms: SM      U1      
 Computing Diagnostic #     85  oceSflux     Counter:       4   Parms: SM      U1      
 Computing Diagnostic #     80  oceTAUX      Counter:       4   Parms: UU      U1      
           Vector  Mate for  oceTAUX      Diagnostic #     81  oceTAUY  exists 
 Computing Diagnostic #     81  oceTAUY      Counter:       4   Parms: VV      U1      
           Vector  Mate for  oceTAUY      Diagnostic #     80  oceTAUX  exists 
 Computing Diagnostic #     26  THETA        Counter:       4   Parms: SMR     MR      
 Computing Diagnostic #     27  SALT         Counter:       4   Parms: SMR     MR      
 Computing Diagnostic #     30  UVEL         Counter:       4   Parms: UUR     MR      
           Vector  Mate for  UVEL         Diagnostic #     31  VVEL     exists 
 Computing Diagnostic #     31  VVEL         Counter:       4   Parms: VVR     MR      
           Vector  Mate for  VVEL         Diagnostic #     30  UVEL     exists 
 Computing Diagnostic #    214  SIarea       Counter:       4   Parms: SM      M1      
 Computing Diagnostic #    217  SIheff       Counter:       4   Parms: SM      M1      
 Computing Diagnostic #    219  SIhsnow      Counter:       4   Parms: SM      M1      
 Computing Diagnostic #     83  sIceLoad     Counter:       4   Parms: SM      U1      
 Computing Diagnostic #    223  SIuice       Counter:       4   Parms: UU      M1      
           Vector  Mate for  SIuice       Diagnostic #    224  SIvice   exists 
 Computing Diagnostic #    224  SIvice       Counter:       4   Parms: VV      M1      
           Vector  Mate for  SIvice       Diagnostic #    223  SIuice   exists 
 Computing Diagnostic #    225  SItaux       Counter:       4   Parms: UU      U1      
           Vector  Mate for  SItaux       Diagnostic #    226  SItauy   exists 
 Computing Diagnostic #    226  SItauy       Counter:       4   Parms: VV      U1      
           Vector  Mate for  SItauy       Diagnostic #    225  SItaux   exists 
 Computing Diagnostic #    285  SIareaN      Counter:       4   Parms: SM      MX      
 Computing Diagnostic #    284  SIheffN      Counter:       4   Parms: SM      MX      
 Computing Diagnostic #    286  SIhsnowN     Counter:       4   Parms: SM      MX      
 Compute Stats, Diag. #    214  SIarea    vol(   0 ): 3.580E+14  Parms: SM      M1      
 Compute Stats, Diag. #    217  SIheff    vol(   0 ): 3.580E+14  Parms: SM      M1      
 Compute Stats, Diag. #    219  SIhsnow   vol(   0 ): 3.580E+14  Parms: SM      M1      
 Compute Stats, Diag. #     83  sIceLoad  vol(   0 ): 3.580E+14  Parms: SM      U1      
 Compute Stats, Diag. #    223  SIuice    vol(   0 ): 3.513E+14  Parms: UU      M1      
 Compute Stats, Diag. #    224  SIvice    vol(   0 ): 3.508E+14  Parms: VV      M1      
 Compute Stats, Diag. #    225  SItaux    vol(   0 ): 3.513E+14  Parms: UU      U1      
 Compute Stats, Diag. #    226  SItauy    vol(   0 ): 3.508E+14  Parms: VV      U1      
 cg2d: Sum(rhs),rhsMax =  -4.52411143138462E+01  2.88494833689477E-01
 Compute Stats, Diag. #    214  SIarea    vol(   0 ): 3.580E+14  Parms: SM      M1      
 Compute Stats, Diag. #    217  SIheff    vol(   0 ): 3.580E+14  Parms: SM      M1      
 Compute Stats, Diag. #    219  SIhsnow   vol(   0 ): 3.580E+14  Parms: SM      M1      
 Compute Stats, Diag. #     83  sIceLoad  vol(   0 ): 3.580E+14  Parms: SM      U1      
 Compute Stats, Diag. #    223  SIuice    vol(   0 ): 3.513E+14  Parms: UU      M1      
 Compute Stats, Diag. #    224  SIvice    vol(   0 ): 3.508E+14  Parms: VV      M1      
 Compute Stats, Diag. #    225  SItaux    vol(   0 ): 3.513E+14  Parms: UU      U1      
 Compute Stats, Diag. #    226  SItauy    vol(   0 ): 3.508E+14  Parms: VV      U1      
 cg2d: Sum(rhs),rhsMax =  -4.53328431158724E+01  2.88545936247989E-01
 Compute Stats, Diag. #    214  SIarea    vol(   0 ): 3.580E+14  Parms: SM      M1      
 Compute Stats, Diag. #    217  SIheff    vol(   0 ): 3.580E+14  Parms: SM      M1      
 Compute Stats, Diag. #    219  SIhsnow   vol(   0 ): 3.580E+14  Parms: SM      M1      
 Compute Stats, Diag. #     83  sIceLoad  vol(   0 ): 3.580E+14  Parms: SM      U1      
 Compute Stats, Diag. #    223  SIuice    vol(   0 ): 3.513E+14  Parms: UU      M1      
 Compute Stats, Diag. #    224  SIvice    vol(   0 ): 3.508E+14  Parms: VV      M1      
 Compute Stats, Diag. #    225  SItaux    vol(   0 ): 3.513E+14  Parms: UU      U1      
 Compute Stats, Diag. #    226  SItauy    vol(   0 ): 3.508E+14  Parms: VV      U1      
 cg2d: Sum(rhs),rhsMax =  -4.54320108526164E+01  2.88589456672044E-01
 Compute Stats, Diag. #    214  SIarea    vol(   0 ): 3.580E+14  Parms: SM      M1      
 Compute Stats, Diag. #    217  SIheff    vol(   0 ): 3.580E+14  Parms: SM      M1      
 Compute Stats, Diag. #    219  SIhsnow   vol(   0 ): 3.580E+14  Parms: SM      M1      
 Compute Stats, Diag. #     83  sIceLoad  vol(   0 ): 3.580E+14  Parms: SM      U1      
 Compute Stats, Diag. #    223  SIuice    vol(   0 ): 3.513E+14  Parms: UU      M1      
 Compute Stats, Diag. #    224  SIvice    vol(   0 ): 3.508E+14  Parms: VV      M1      
 Compute Stats, Diag. #    225  SItaux    vol(   0 ): 3.513E+14  Parms: UU      U1      
 Compute Stats, Diag. #    226  SItauy    vol(   0 ): 3.508E+14  Parms: VV      U1      
 cg2d: Sum(rhs),rhsMax =  -4.55196264666170E+01  2.88627056622937E-01
(PID.TID 0000.0001)      cg2d_init_res =   4.28148844691745E-02
(PID.TID 0000.0001)      cg2d_iters(min,last) =      -1      24
(PID.TID 0000.0001)      cg2d_last_res =   2.39915030562546E-05
(PID.TID 0000.0001) // =======================================================
(PID.TID 0000.0001) // Begin MONITOR dynamic field statistics
(PID.TID 0000.0001) // =======================================================
(PID.TID 0000.0001) %MON time_tsnumber                =                  1112
(PID.TID 0000.0001) %MON time_secondsf                =   1.0008000000000E+06
(PID.TID 0000.0001) %MON dynstat_eta_max              =   1.0089906708107E+00
(PID.TID 0000.0001) %MON dynstat_eta_min              =  -1.8117116632629E+00
(PID.TID 0000.0001) %MON dynstat_eta_mean             =   1.4399311651799E-03
(PID.TID 0000.0001) %MON dynstat_eta_sd               =   6.2339686881640E-01
(PID.TID 0000.0001) %MON dynstat_eta_del2             =   5.1951871381902E-05
(PID.TID 0000.0001) %MON dynstat_uvel_max             =   6.6383083547951E-01
(PID.TID 0000.0001) %MON dynstat_uvel_min             =  -8.9811517361696E-01
(PID.TID 0000.0001) %MON dynstat_uvel_mean            =   1.3511604152520E-03
(PID.TID 0000.0001) %MON dynstat_uvel_sd              =   1.7903921385643E-02
(PID.TID 0000.0001) %MON dynstat_uvel_del2            =   6.9341384219210E-06
(PID.TID 0000.0001) %MON dynstat_vvel_max             =   7.3006765539023E-01
(PID.TID 0000.0001) %MON dynstat_vvel_min             =  -1.0288196414410E+00
(PID.TID 0000.0001) %MON dynstat_vvel_mean            =   1.0205016015027E-03
(PID.TID 0000.0001) %MON dynstat_vvel_sd              =   1.9431705071000E-02
(PID.TID 0000.0001) %MON dynstat_vvel_del2            =   7.2193517912762E-06
(PID.TID 0000.0001) %MON dynstat_wvel_max             =   3.2721034997212E-04
(PID.TID 0000.0001) %MON dynstat_wvel_min             =  -7.8170017735546E-04
(PID.TID 0000.0001) %MON dynstat_wvel_mean            =  -3.2843429848858E-09
(PID.TID 0000.0001) %MON dynstat_wvel_sd              =   1.5294331702538E-05
(PID.TID 0000.0001) %MON dynstat_wvel_del2            =   1.3930503354086E-08
(PID.TID 0000.0001) %MON dynstat_theta_max            =   3.1636329829240E+01
(PID.TID 0000.0001) %MON dynstat_theta_min            =  -2.0396093507131E+00
(PID.TID 0000.0001) %MON dynstat_theta_mean           =   3.5900862006376E+00
(PID.TID 0000.0001) %MON dynstat_theta_sd             =   4.4367478342292E+00
(PID.TID 0000.0001) %MON dynstat_theta_del2           =   8.9926292419708E-05
(PID.TID 0000.0001) %MON dynstat_salt_max             =   4.0711547305598E+01
(PID.TID 0000.0001) %MON dynstat_salt_min             =   6.0343104285188E+00
(PID.TID 0000.0001) %MON dynstat_salt_mean            =   3.4725558975963E+01
(PID.TID 0000.0001) %MON dynstat_salt_sd              =   3.7712695330794E-01
(PID.TID 0000.0001) %MON dynstat_salt_del2            =   3.5504712913162E-05
(PID.TID 0000.0001) %MON dynstat_sst_max              =   3.1632058679791E+01
(PID.TID 0000.0001) %MON dynstat_sst_min              =  -1.8076625405411E+00
(PID.TID 0000.0001) %MON dynstat_sst_mean             =   1.8440887406474E+01
(PID.TID 0000.0001) %MON dynstat_sst_sd               =   1.0297311834994E+01
(PID.TID 0000.0001) %MON dynstat_sst_del2             =   7.9282907657333E-04
(PID.TID 0000.0001) %MON dynstat_sss_max              =   3.9097910048753E+01
(PID.TID 0000.0001) %MON dynstat_sss_min              =   6.0343104285188E+00
(PID.TID 0000.0001) %MON dynstat_sss_mean             =   3.4701222525383E+01
(PID.TID 0000.0001) %MON dynstat_sss_sd               =   1.1844163135506E+00
(PID.TID 0000.0001) %MON dynstat_sss_del2             =   1.0701359395043E-03
(PID.TID 0000.0001) %MON forcing_qnet_max             =   7.5403125000000E+02
(PID.TID 0000.0001) %MON forcing_qnet_min             =  -6.3410523695134E+02
(PID.TID 0000.0001) %MON forcing_qnet_mean            =   2.7776309296565E+01
(PID.TID 0000.0001) %MON forcing_qnet_sd              =   1.8008508440938E+02
(PID.TID 0000.0001) %MON forcing_qnet_del2            =   2.9321269194964E-01
(PID.TID 0000.0001) %MON forcing_qsw_max              =   0.0000000000000E+00
(PID.TID 0000.0001) %MON forcing_qsw_min              =  -9.9904863045706E+01
(PID.TID 0000.0001) %MON forcing_qsw_mean             =  -1.4526904264909E+01
(PID.TID 0000.0001) %MON forcing_qsw_sd               =   2.4595411955610E+01
(PID.TID 0000.0001) %MON forcing_qsw_del2             =   2.0232966587755E-02
(PID.TID 0000.0001) %MON forcing_empmr_max            =   1.8611730774865E-03
(PID.TID 0000.0001) %MON forcing_empmr_min            =  -4.7447409480810E-02
(PID.TID 0000.0001) %MON forcing_empmr_mean           =  -3.1688188729956E-06
(PID.TID 0000.0001) %MON forcing_empmr_sd             =   2.3601149055208E-04
(PID.TID 0000.0001) %MON forcing_empmr_del2           =   2.6195829275435E-06
(PID.TID 0000.0001) %MON forcing_fu_max               =   7.6738727092743E-01
(PID.TID 0000.0001) %MON forcing_fu_min               =  -1.0362987479959E+00
(PID.TID 0000.0001) %MON forcing_fu_mean              =   2.9482066601700E-03
(PID.TID 0000.0001) %MON forcing_fu_sd                =   1.0556847310384E-01
(PID.TID 0000.0001) %MON forcing_fu_del2              =   1.3449722091335E-04
(PID.TID 0000.0001) %MON forcing_fv_max               =   4.9250607192516E-01
(PID.TID 0000.0001) %MON forcing_fv_min               =  -1.0370307960042E+00
(PID.TID 0000.0001) %MON forcing_fv_mean              =  -1.2080395634921E-02
(PID.TID 0000.0001) %MON forcing_fv_sd                =   1.0422452714722E-01
(PID.TID 0000.0001) %MON forcing_fv_del2              =   1.4354304243650E-04
(PID.TID 0000.0001) %MON trAdv_CFL_u_max              =   1.1414735999921E-02
(PID.TID 0000.0001) %MON trAdv_CFL_v_max              =   1.6544726416519E-02
(PID.TID 0000.0001) %MON trAdv_CFL_w_max              =   2.1821516987227E-02
(PID.TID 0000.0001) %MON advcfl_uvel_max              =   1.0233342361229E-02
(PID.TID 0000.0001) %MON advcfl_vvel_max              =   1.5582447125470E-02
(PID.TID 0000.0001) %MON advcfl_wvel_max              =   2.3970466620221E-02
(PID.TID 0000.0001) %MON advcfl_W_hf_max              =   2.5140274320969E-02
(PID.TID 0000.0001) %MON pe_b_mean                    =   5.1119860613708E-04
(PID.TID 0000.0001) %MON ke_max                       =   5.4707473005787E-01
(PID.TID 0000.0001) %MON ke_mean                      =   3.3802391132567E-04
(PID.TID 0000.0001) %MON ke_vol                       =   1.3349983914624E+18
(PID.TID 0000.0001) %MON vort_r_min                   =  -2.1533000755552E-05
(PID.TID 0000.0001) %MON vort_r_max                   =   2.4856650104203E-05
(PID.TID 0000.0001) %MON vort_a_mean                  =  -1.9727864647440E-05
(PID.TID 0000.0001) %MON vort_a_sd                    =   7.4542974930543E-05
(PID.TID 0000.0001) %MON vort_p_mean                  =  -2.1760525189434E-05
(PID.TID 0000.0001) %MON vort_p_sd                    =   9.7246848069396E-05
(PID.TID 0000.0001) %MON surfExpan_theta_mean         =   1.3419175626215E-07
(PID.TID 0000.0001) %MON surfExpan_salt_mean          =   4.4016619885111E-08
(PID.TID 0000.0001) // =======================================================
(PID.TID 0000.0001) // End MONITOR dynamic field statistics
(PID.TID 0000.0001) // =======================================================
(PID.TID 0000.0001) // =======================================================
(PID.TID 0000.0001) // Begin MONITOR SEAICE statistics
(PID.TID 0000.0001) // =======================================================
(PID.TID 0000.0001) %MON seaice_tsnumber              =                  1112
(PID.TID 0000.0001) %MON seaice_time_sec              =   1.0008000000000E+06
(PID.TID 0000.0001) %MON seaice_uice_max              =   4.0000000000000E-01
(PID.TID 0000.0001) %MON seaice_uice_min              =  -4.0000000000000E-01
(PID.TID 0000.0001) %MON seaice_uice_mean             =  -8.3054598624025E-03
(PID.TID 0000.0001) %MON seaice_uice_sd               =   1.9802383574176E-01
(PID.TID 0000.0001) %MON seaice_uice_del2             =   2.2931571122150E-04
(PID.TID 0000.0001) %MON seaice_vice_max              =   4.0000000000000E-01
(PID.TID 0000.0001) %MON seaice_vice_min              =  -4.0000000000000E-01
(PID.TID 0000.0001) %MON seaice_vice_mean             =  -2.1960776359499E-02
(PID.TID 0000.0001) %MON seaice_vice_sd               =   2.1302038025672E-01
(PID.TID 0000.0001) %MON seaice_vice_del2             =   2.3932563818061E-04
(PID.TID 0000.0001) %MON seaice_area_max              =   9.9999999813735E-01
(PID.TID 0000.0001) %MON seaice_area_min              =   0.0000000000000E+00
(PID.TID 0000.0001) %MON seaice_area_mean             =   6.4631496438928E-02
(PID.TID 0000.0001) %MON seaice_area_sd               =   2.2767887602653E-01
(PID.TID 0000.0001) %MON seaice_area_del2             =   3.7351732246073E-04
(PID.TID 0000.0001) %MON seaice_heff_max              =   2.4896181516931E+01
(PID.TID 0000.0001) %MON seaice_heff_min              =   0.0000000000000E+00
(PID.TID 0000.0001) %MON seaice_heff_mean             =   2.1145576537275E-01
(PID.TID 0000.0001) %MON seaice_heff_sd               =   1.0655240671480E+00
(PID.TID 0000.0001) %MON seaice_heff_del2             =   3.8133917389772E-03
(PID.TID 0000.0001) %MON seaice_hsnow_max             =   8.2232295909198E+00
(PID.TID 0000.0001) %MON seaice_hsnow_min             =   0.0000000000000E+00
(PID.TID 0000.0001) %MON seaice_hsnow_mean            =   2.3868544963520E-02
(PID.TID 0000.0001) %MON seaice_hsnow_sd              =   1.5575514643968E-01
(PID.TID 0000.0001) %MON seaice_hsnow_del2            =   1.2339699590675E-03
(PID.TID 0000.0001) // =======================================================
(PID.TID 0000.0001) // End MONITOR SEAICE statistics
(PID.TID 0000.0001) // =======================================================
 Computing Diagnostic #     86  oceQnet      Counter:       4   Parms: SM      U1      
 Computing Diagnostic #     87  oceQsw       Counter:       4   Parms: SM      U1      
 Computing Diagnostic #     84  oceFWflx     Counter:       4   Parms: SM      U1      
 Computing Diagnostic #     85  oceSflux     Counter:       4   Parms: SM      U1      
 Computing Diagnostic #     80  oceTAUX      Counter:       4   Parms: UU      U1      
           Vector  Mate for  oceTAUX      Diagnostic #     81  oceTAUY  exists 
 Computing Diagnostic #     81  oceTAUY      Counter:       4   Parms: VV      U1      
           Vector  Mate for  oceTAUY      Diagnostic #     80  oceTAUX  exists 
 Computing Diagnostic #     26  THETA        Counter:       4   Parms: SMR     MR      
 Computing Diagnostic #     27  SALT         Counter:       4   Parms: SMR     MR      
 Computing Diagnostic #     30  UVEL         Counter:       4   Parms: UUR     MR      
           Vector  Mate for  UVEL         Diagnostic #     31  VVEL     exists 
 Computing Diagnostic #     31  VVEL         Counter:       4   Parms: VVR     MR      
           Vector  Mate for  VVEL         Diagnostic #     30  UVEL     exists 
 Computing Diagnostic #    214  SIarea       Counter:       4   Parms: SM      M1      
 Computing Diagnostic #    217  SIheff       Counter:       4   Parms: SM      M1      
 Computing Diagnostic #    219  SIhsnow      Counter:       4   Parms: SM      M1      
 Computing Diagnostic #     83  sIceLoad     Counter:       4   Parms: SM      U1      
 Computing Diagnostic #    223  SIuice       Counter:       4   Parms: UU      M1      
           Vector  Mate for  SIuice       Diagnostic #    224  SIvice   exists 
 Computing Diagnostic #    224  SIvice       Counter:       4   Parms: VV      M1      
           Vector  Mate for  SIvice       Diagnostic #    223  SIuice   exists 
 Computing Diagnostic #    225  SItaux       Counter:       4   Parms: UU      U1      
           Vector  Mate for  SItaux       Diagnostic #    226  SItauy   exists 
 Computing Diagnostic #    226  SItauy       Counter:       4   Parms: VV      U1      
           Vector  Mate for  SItauy       Diagnostic #    225  SItaux   exists 
 Computing Diagnostic #    285  SIareaN      Counter:       4   Parms: SM      MX      
 Computing Diagnostic #    284  SIheffN      Counter:       4   Parms: SM      MX      
 Computing Diagnostic #    286  SIhsnowN     Counter:       4   Parms: SM      MX      
 Compute Stats, Diag. #    214  SIarea    vol(   0 ): 3.580E+14  Parms: SM      M1      
 Compute Stats, Diag. #    217  SIheff    vol(   0 ): 3.580E+14  Parms: SM      M1      
 Compute Stats, Diag. #    219  SIhsnow   vol(   0 ): 3.580E+14  Parms: SM      M1      
 Compute Stats, Diag. #     83  sIceLoad  vol(   0 ): 3.580E+14  Parms: SM      U1      
 Compute Stats, Diag. #    223  SIuice    vol(   0 ): 3.513E+14  Parms: UU      M1      
 Compute Stats, Diag. #    224  SIvice    vol(   0 ): 3.508E+14  Parms: VV      M1      
 Compute Stats, Diag. #    225  SItaux    vol(   0 ): 3.513E+14  Parms: UU      U1      
 Compute Stats, Diag. #    226  SItauy    vol(   0 ): 3.508E+14  Parms: VV      U1      
 cg2d: Sum(rhs),rhsMax =  -4.56068491380608E+01  2.88659875258371E-01
 Compute Stats, Diag. #    214  SIarea    vol(   0 ): 3.580E+14  Parms: SM      M1      
 Compute Stats, Diag. #    217  SIheff    vol(   0 ): 3.580E+14  Parms: SM      M1      
 Compute Stats, Diag. #    219  SIhsnow   vol(   0 ): 3.580E+14  Parms: SM      M1      
 Compute Stats, Diag. #     83  sIceLoad  vol(   0 ): 3.580E+14  Parms: SM      U1      
 Compute Stats, Diag. #    223  SIuice    vol(   0 ): 3.513E+14  Parms: UU      M1      
 Compute Stats, Diag. #    224  SIvice    vol(   0 ): 3.508E+14  Parms: VV      M1      
 Compute Stats, Diag. #    225  SItaux    vol(   0 ): 3.513E+14  Parms: UU      U1      
 Compute Stats, Diag. #    226  SItauy    vol(   0 ): 3.508E+14  Parms: VV      U1      
 cg2d: Sum(rhs),rhsMax =  -4.57004408913775E+01  2.88688083214004E-01
 Compute Stats, Diag. #    214  SIarea    vol(   0 ): 3.580E+14  Parms: SM      M1      
 Compute Stats, Diag. #    217  SIheff    vol(   0 ): 3.580E+14  Parms: SM      M1      
 Compute Stats, Diag. #    219  SIhsnow   vol(   0 ): 3.580E+14  Parms: SM      M1      
 Compute Stats, Diag. #     83  sIceLoad  vol(   0 ): 3.580E+14  Parms: SM      U1      
 Compute Stats, Diag. #    223  SIuice    vol(   0 ): 3.513E+14  Parms: UU      M1      
 Compute Stats, Diag. #    224  SIvice    vol(   0 ): 3.508E+14  Parms: VV      M1      
 Compute Stats, Diag. #    225  SItaux    vol(   0 ): 3.513E+14  Parms: UU      U1      
 Compute Stats, Diag. #    226  SItauy    vol(   0 ): 3.508E+14  Parms: VV      U1      
 cg2d: Sum(rhs),rhsMax =  -4.57996096581170E+01  2.88713126033659E-01
 Compute Stats, Diag. #    214  SIarea    vol(   0 ): 3.580E+14  Parms: SM      M1      
 Compute Stats, Diag. #    217  SIheff    vol(   0 ): 3.580E+14  Parms: SM      M1      
 Compute Stats, Diag. #    219  SIhsnow   vol(   0 ): 3.580E+14  Parms: SM      M1      
 Compute Stats, Diag. #     83  sIceLoad  vol(   0 ): 3.580E+14  Parms: SM      U1      
 Compute Stats, Diag. #    223  SIuice    vol(   0 ): 3.513E+14  Parms: UU      M1      
 Compute Stats, Diag. #    224  SIvice    vol(   0 ): 3.508E+14  Parms: VV      M1      
 Compute Stats, Diag. #    225  SItaux    vol(   0 ): 3.513E+14  Parms: UU      U1      
 Compute Stats, Diag. #    226  SItauy    vol(   0 ): 3.508E+14  Parms: VV      U1      
 cg2d: Sum(rhs),rhsMax =  -4.59052906166705E+01  2.88733970400229E-01
 Computing Diagnostic #     86  oceQnet      Counter:       4   Parms: SM      U1      
 Computing Diagnostic #     87  oceQsw       Counter:       4   Parms: SM      U1      
 Computing Diagnostic #     84  oceFWflx     Counter:       4   Parms: SM      U1      
 Computing Diagnostic #     85  oceSflux     Counter:       4   Parms: SM      U1      
 Computing Diagnostic #     80  oceTAUX      Counter:       4   Parms: UU      U1      
           Vector  Mate for  oceTAUX      Diagnostic #     81  oceTAUY  exists 
 Computing Diagnostic #     81  oceTAUY      Counter:       4   Parms: VV      U1      
           Vector  Mate for  oceTAUY      Diagnostic #     80  oceTAUX  exists 
 Computing Diagnostic #     26  THETA        Counter:       4   Parms: SMR     MR      
 Computing Diagnostic #     27  SALT         Counter:       4   Parms: SMR     MR      
 Computing Diagnostic #     30  UVEL         Counter:       4   Parms: UUR     MR      
           Vector  Mate for  UVEL         Diagnostic #     31  VVEL     exists 
 Computing Diagnostic #     31  VVEL         Counter:       4   Parms: VVR     MR      
           Vector  Mate for  VVEL         Diagnostic #     30  UVEL     exists 
 Computing Diagnostic #    214  SIarea       Counter:       4   Parms: SM      M1      
 Computing Diagnostic #    217  SIheff       Counter:       4   Parms: SM      M1      
 Computing Diagnostic #    219  SIhsnow      Counter:       4   Parms: SM      M1      
 Computing Diagnostic #     83  sIceLoad     Counter:       4   Parms: SM      U1      
 Computing Diagnostic #    223  SIuice       Counter:       4   Parms: UU      M1      
           Vector  Mate for  SIuice       Diagnostic #    224  SIvice   exists 
 Computing Diagnostic #    224  SIvice       Counter:       4   Parms: VV      M1      
           Vector  Mate for  SIvice       Diagnostic #    223  SIuice   exists 
 Computing Diagnostic #    225  SItaux       Counter:       4   Parms: UU      U1      
           Vector  Mate for  SItaux       Diagnostic #    226  SItauy   exists 
 Computing Diagnostic #    226  SItauy       Counter:       4   Parms: VV      U1      
           Vector  Mate for  SItauy       Diagnostic #    225  SItaux   exists 
 Computing Diagnostic #    285  SIareaN      Counter:       4   Parms: SM      MX      
 Computing Diagnostic #    284  SIheffN      Counter:       4   Parms: SM      MX      
 Computing Diagnostic #    286  SIhsnowN     Counter:       4   Parms: SM      MX      
 Compute Stats, Diag. #    214  SIarea    vol(   0 ): 3.580E+14  Parms: SM      M1      
 Compute Stats, Diag. #    217  SIheff    vol(   0 ): 3.580E+14  Parms: SM      M1      
 Compute Stats, Diag. #    219  SIhsnow   vol(   0 ): 3.580E+14  Parms: SM      M1      
 Compute Stats, Diag. #     83  sIceLoad  vol(   0 ): 3.580E+14  Parms: SM      U1      
 Compute Stats, Diag. #    223  SIuice    vol(   0 ): 3.513E+14  Parms: UU      M1      
 Compute Stats, Diag. #    224  SIvice    vol(   0 ): 3.508E+14  Parms: VV      M1      
 Compute Stats, Diag. #    225  SItaux    vol(   0 ): 3.513E+14  Parms: UU      U1      
 Compute Stats, Diag. #    226  SItauy    vol(   0 ): 3.508E+14  Parms: VV      U1      
 cg2d: Sum(rhs),rhsMax =  -4.60076114918895E+01  2.88750509068834E-01
 Compute Stats, Diag. #    214  SIarea    vol(   0 ): 3.580E+14  Parms: SM      M1      
 Compute Stats, Diag. #    217  SIheff    vol(   0 ): 3.580E+14  Parms: SM      M1      
 Compute Stats, Diag. #    219  SIhsnow   vol(   0 ): 3.580E+14  Parms: SM      M1      
 Compute Stats, Diag. #     83  sIceLoad  vol(   0 ): 3.580E+14  Parms: SM      U1      
 Compute Stats, Diag. #    223  SIuice    vol(   0 ): 3.513E+14  Parms: UU      M1      
 Compute Stats, Diag. #    224  SIvice    vol(   0 ): 3.508E+14  Parms: VV      M1      
 Compute Stats, Diag. #    225  SItaux    vol(   0 ): 3.513E+14  Parms: UU      U1      
 Compute Stats, Diag. #    226  SItauy    vol(   0 ): 3.508E+14  Parms: VV      U1      
 cg2d: Sum(rhs),rhsMax =  -4.61087729512623E+01  2.88767060012315E-01
 Compute Stats, Diag. #    214  SIarea    vol(   0 ): 3.580E+14  Parms: SM      M1      
 Compute Stats, Diag. #    217  SIheff    vol(   0 ): 3.580E+14  Parms: SM      M1      
 Compute Stats, Diag. #    219  SIhsnow   vol(   0 ): 3.580E+14  Parms: SM      M1      
 Compute Stats, Diag. #     83  sIceLoad  vol(   0 ): 3.580E+14  Parms: SM      U1      
 Compute Stats, Diag. #    223  SIuice    vol(   0 ): 3.513E+14  Parms: UU      M1      
 Compute Stats, Diag. #    224  SIvice    vol(   0 ): 3.508E+14  Parms: VV      M1      
 Compute Stats, Diag. #    225  SItaux    vol(   0 ): 3.513E+14  Parms: UU      U1      
 Compute Stats, Diag. #    226  SItauy    vol(   0 ): 3.508E+14  Parms: VV      U1      
 cg2d: Sum(rhs),rhsMax =  -4.62095067500284E+01  2.88780374617159E-01
 Compute Stats, Diag. #    214  SIarea    vol(   0 ): 3.580E+14  Parms: SM      M1      
 Compute Stats, Diag. #    217  SIheff    vol(   0 ): 3.580E+14  Parms: SM      M1      
 Compute Stats, Diag. #    219  SIhsnow   vol(   0 ): 3.580E+14  Parms: SM      M1      
 Compute Stats, Diag. #     83  sIceLoad  vol(   0 ): 3.580E+14  Parms: SM      U1      
 Compute Stats, Diag. #    223  SIuice    vol(   0 ): 3.513E+14  Parms: UU      M1      
 Compute Stats, Diag. #    224  SIvice    vol(   0 ): 3.508E+14  Parms: VV      M1      
 Compute Stats, Diag. #    225  SItaux    vol(   0 ): 3.513E+14  Parms: UU      U1      
 Compute Stats, Diag. #    226  SItauy    vol(   0 ): 3.508E+14  Parms: VV      U1      
 cg2d: Sum(rhs),rhsMax =  -4.63133811707940E+01  2.88790800458405E-01
(PID.TID 0000.0001)      cg2d_init_res =   4.39339040002672E-02
(PID.TID 0000.0001)      cg2d_iters(min,last) =      -1      24
(PID.TID 0000.0001)      cg2d_last_res =   2.52620965708370E-05
(PID.TID 0000.0001) // =======================================================
(PID.TID 0000.0001) // Begin MONITOR dynamic field statistics
(PID.TID 0000.0001) // =======================================================
(PID.TID 0000.0001) %MON time_tsnumber                =                  1120
(PID.TID 0000.0001) %MON time_secondsf                =   1.0080000000000E+06
(PID.TID 0000.0001) %MON dynstat_eta_max              =   1.0099756102894E+00
(PID.TID 0000.0001) %MON dynstat_eta_min              =  -1.8137920616627E+00
(PID.TID 0000.0001) %MON dynstat_eta_mean             =   1.4650401615572E-03
(PID.TID 0000.0001) %MON dynstat_eta_sd               =   6.2367384928272E-01
(PID.TID 0000.0001) %MON dynstat_eta_del2             =   5.1935994278926E-05
(PID.TID 0000.0001) %MON dynstat_uvel_max             =   6.6382649894947E-01
(PID.TID 0000.0001) %MON dynstat_uvel_min             =  -8.9901014953775E-01
(PID.TID 0000.0001) %MON dynstat_uvel_mean            =   1.3495056984587E-03
(PID.TID 0000.0001) %MON dynstat_uvel_sd              =   1.7902567624482E-02
(PID.TID 0000.0001) %MON dynstat_uvel_del2            =   6.9280656847285E-06
(PID.TID 0000.0001) %MON dynstat_vvel_max             =   7.6068128134662E-01
(PID.TID 0000.0001) %MON dynstat_vvel_min             =  -1.0319921869748E+00
(PID.TID 0000.0001) %MON dynstat_vvel_mean            =   1.0320575946823E-03
(PID.TID 0000.0001) %MON dynstat_vvel_sd              =   1.9450064760069E-02
(PID.TID 0000.0001) %MON dynstat_vvel_del2            =   7.2279340004744E-06
(PID.TID 0000.0001) %MON dynstat_wvel_max             =   3.2209412831072E-04
(PID.TID 0000.0001) %MON dynstat_wvel_min             =  -7.8118315303559E-04
(PID.TID 0000.0001) %MON dynstat_wvel_mean            =  -1.8966200264672E-09
(PID.TID 0000.0001) %MON dynstat_wvel_sd              =   1.5315858944658E-05
(PID.TID 0000.0001) %MON dynstat_wvel_del2            =   1.3990163145280E-08
(PID.TID 0000.0001) %MON dynstat_theta_max            =   3.1620831897190E+01
(PID.TID 0000.0001) %MON dynstat_theta_min            =  -2.0396036298629E+00
(PID.TID 0000.0001) %MON dynstat_theta_mean           =   3.5900755499826E+00
(PID.TID 0000.0001) %MON dynstat_theta_sd             =   4.4367188913530E+00
(PID.TID 0000.0001) %MON dynstat_theta_del2           =   8.9877675919232E-05
(PID.TID 0000.0001) %MON dynstat_salt_max             =   4.0711547740830E+01
(PID.TID 0000.0001) %MON dynstat_salt_min             =   6.2633575139444E+00
(PID.TID 0000.0001) %MON dynstat_salt_mean            =   3.4725558742192E+01
(PID.TID 0000.0001) %MON dynstat_salt_sd              =   3.7712690915100E-01
(PID.TID 0000.0001) %MON dynstat_salt_del2            =   3.5427312801109E-05
(PID.TID 0000.0001) %MON dynstat_sst_max              =   3.1613232461189E+01
(PID.TID 0000.0001) %MON dynstat_sst_min              =  -1.8107906501341E+00
(PID.TID 0000.0001) %MON dynstat_sst_mean             =   1.8439890340617E+01
(PID.TID 0000.0001) %MON dynstat_sst_sd               =   1.0297802556772E+01
(PID.TID 0000.0001) %MON dynstat_sst_del2             =   7.9140671301541E-04
(PID.TID 0000.0001) %MON dynstat_sss_max              =   3.9097865720148E+01
(PID.TID 0000.0001) %MON dynstat_sss_min              =   6.2633575139444E+00
(PID.TID 0000.0001) %MON dynstat_sss_mean             =   3.4701268141534E+01
(PID.TID 0000.0001) %MON dynstat_sss_sd               =   1.1844522427528E+00
(PID.TID 0000.0001) %MON dynstat_sss_del2             =   1.0629779528335E-03
(PID.TID 0000.0001) %MON forcing_qnet_max             =   6.6524572753906E+02
(PID.TID 0000.0001) %MON forcing_qnet_min             =  -1.0087745361328E+03
(PID.TID 0000.0001) %MON forcing_qnet_mean            =   1.9176945100217E+01
(PID.TID 0000.0001) %MON forcing_qnet_sd              =   2.0594782577775E+02
(PID.TID 0000.0001) %MON forcing_qnet_del2            =   2.9940771252443E-01
(PID.TID 0000.0001) %MON forcing_qsw_max              =   0.0000000000000E+00
(PID.TID 0000.0001) %MON forcing_qsw_min              =  -1.0534794802257E+02
(PID.TID 0000.0001) %MON forcing_qsw_mean             =  -1.5723649941956E+01
(PID.TID 0000.0001) %MON forcing_qsw_sd               =   2.7972762503654E+01
(PID.TID 0000.0001) %MON forcing_qsw_del2             =   2.1052879443443E-02
(PID.TID 0000.0001) %MON forcing_empmr_max            =   1.9526672549546E-03
(PID.TID 0000.0001) %MON forcing_empmr_min            =  -5.5341638624668E-02
(PID.TID 0000.0001) %MON forcing_empmr_mean           =  -3.7568557693551E-06
(PID.TID 0000.0001) %MON forcing_empmr_sd             =   2.5590910217883E-04
(PID.TID 0000.0001) %MON forcing_empmr_del2           =   2.7281511054653E-06
(PID.TID 0000.0001) %MON forcing_fu_max               =   7.1381980180740E-01
(PID.TID 0000.0001) %MON forcing_fu_min               =  -1.0183196023699E+00
(PID.TID 0000.0001) %MON forcing_fu_mean              =   2.6325391419354E-03
(PID.TID 0000.0001) %MON forcing_fu_sd                =   1.0577220181687E-01
(PID.TID 0000.0001) %MON forcing_fu_del2              =   1.3478647370959E-04
(PID.TID 0000.0001) %MON forcing_fv_max               =   4.7819009423256E-01
(PID.TID 0000.0001) %MON forcing_fv_min               =  -1.0188823924323E+00
(PID.TID 0000.0001) %MON forcing_fv_mean              =  -1.1449201913257E-02
(PID.TID 0000.0001) %MON forcing_fv_sd                =   1.0458335021510E-01
(PID.TID 0000.0001) %MON forcing_fv_del2              =   1.4354480724143E-04
(PID.TID 0000.0001) %MON trAdv_CFL_u_max              =   1.1459598109615E-02
(PID.TID 0000.0001) %MON trAdv_CFL_v_max              =   1.7199019387442E-02
(PID.TID 0000.0001) %MON trAdv_CFL_w_max              =   2.1878911458617E-02
(PID.TID 0000.0001) %MON advcfl_uvel_max              =   9.9837639313862E-03
(PID.TID 0000.0001) %MON advcfl_vvel_max              =   1.6235859455495E-02
(PID.TID 0000.0001) %MON advcfl_wvel_max              =   2.4025083630425E-02
(PID.TID 0000.0001) %MON advcfl_W_hf_max              =   2.5197685787452E-02
(PID.TID 0000.0001) %MON pe_b_mean                    =   5.1165305687164E-04
(PID.TID 0000.0001) %MON ke_max                       =   5.5181234339072E-01
(PID.TID 0000.0001) %MON ke_mean                      =   3.3835409679020E-04
(PID.TID 0000.0001) %MON ke_vol                       =   1.3349984002676E+18
(PID.TID 0000.0001) %MON vort_r_min                   =  -2.2383313076372E-05
(PID.TID 0000.0001) %MON vort_r_max                   =   2.5721635808412E-05
(PID.TID 0000.0001) %MON vort_a_mean                  =  -1.9727864647440E-05
(PID.TID 0000.0001) %MON vort_a_sd                    =   7.4542975704739E-05
(PID.TID 0000.0001) %MON vort_p_mean                  =  -2.1760525011790E-05
(PID.TID 0000.0001) %MON vort_p_sd                    =   9.7246934743812E-05
(PID.TID 0000.0001) %MON surfExpan_theta_mean         =   1.3612087388272E-07
(PID.TID 0000.0001) %MON surfExpan_salt_mean          =   4.2480809175103E-08
(PID.TID 0000.0001) // =======================================================
(PID.TID 0000.0001) // End MONITOR dynamic field statistics
(PID.TID 0000.0001) // =======================================================
(PID.TID 0000.0001) // =======================================================
(PID.TID 0000.0001) // Begin MONITOR SEAICE statistics
(PID.TID 0000.0001) // =======================================================
(PID.TID 0000.0001) %MON seaice_tsnumber              =                  1120
(PID.TID 0000.0001) %MON seaice_time_sec              =   1.0080000000000E+06
(PID.TID 0000.0001) %MON seaice_uice_max              =   4.0000000000000E-01
(PID.TID 0000.0001) %MON seaice_uice_min              =  -4.0000000000000E-01
(PID.TID 0000.0001) %MON seaice_uice_mean             =  -8.3054598624025E-03
(PID.TID 0000.0001) %MON seaice_uice_sd               =   1.9802383574176E-01
(PID.TID 0000.0001) %MON seaice_uice_del2             =   2.2931571122150E-04
(PID.TID 0000.0001) %MON seaice_vice_max              =   4.0000000000000E-01
(PID.TID 0000.0001) %MON seaice_vice_min              =  -4.0000000000000E-01
(PID.TID 0000.0001) %MON seaice_vice_mean             =  -2.1960776359499E-02
(PID.TID 0000.0001) %MON seaice_vice_sd               =   2.1302038025672E-01
(PID.TID 0000.0001) %MON seaice_vice_del2             =   2.3932563818061E-04
(PID.TID 0000.0001) %MON seaice_area_max              =   9.9999999813735E-01
(PID.TID 0000.0001) %MON seaice_area_min              =   0.0000000000000E+00
(PID.TID 0000.0001) %MON seaice_area_mean             =   6.4605936368391E-02
(PID.TID 0000.0001) %MON seaice_area_sd               =   2.2763352710192E-01
(PID.TID 0000.0001) %MON seaice_area_del2             =   3.7297673360761E-04
(PID.TID 0000.0001) %MON seaice_heff_max              =   2.4894738437259E+01
(PID.TID 0000.0001) %MON seaice_heff_min              =   0.0000000000000E+00
(PID.TID 0000.0001) %MON seaice_heff_mean             =   2.1143518014349E-01
(PID.TID 0000.0001) %MON seaice_heff_sd               =   1.0655072996325E+00
(PID.TID 0000.0001) %MON seaice_heff_del2             =   3.8128430237187E-03
(PID.TID 0000.0001) %MON seaice_hsnow_max             =   8.2227481781738E+00
(PID.TID 0000.0001) %MON seaice_hsnow_min             =   0.0000000000000E+00
(PID.TID 0000.0001) %MON seaice_hsnow_mean            =   2.3870421068490E-02
(PID.TID 0000.0001) %MON seaice_hsnow_sd              =   1.5575045856375E-01
(PID.TID 0000.0001) %MON seaice_hsnow_del2            =   1.2338373931371E-03
(PID.TID 0000.0001) // =======================================================
(PID.TID 0000.0001) // End MONITOR SEAICE statistics
(PID.TID 0000.0001) // =======================================================
 Computing Diagnostic #     86  oceQnet      Counter:       4   Parms: SM      U1      
 Computing Diagnostic #     87  oceQsw       Counter:       4   Parms: SM      U1      
 Computing Diagnostic #     84  oceFWflx     Counter:       4   Parms: SM      U1      
 Computing Diagnostic #     85  oceSflux     Counter:       4   Parms: SM      U1      
 Computing Diagnostic #     80  oceTAUX      Counter:       4   Parms: UU      U1      
           Vector  Mate for  oceTAUX      Diagnostic #     81  oceTAUY  exists 
 Computing Diagnostic #     81  oceTAUY      Counter:       4   Parms: VV      U1      
           Vector  Mate for  oceTAUY      Diagnostic #     80  oceTAUX  exists 
 Computing Diagnostic #     26  THETA        Counter:       4   Parms: SMR     MR      
 Computing Diagnostic #     27  SALT         Counter:       4   Parms: SMR     MR      
 Computing Diagnostic #     30  UVEL         Counter:       4   Parms: UUR     MR      
           Vector  Mate for  UVEL         Diagnostic #     31  VVEL     exists 
 Computing Diagnostic #     31  VVEL         Counter:       4   Parms: VVR     MR      
           Vector  Mate for  VVEL         Diagnostic #     30  UVEL     exists 
 Computing Diagnostic #    214  SIarea       Counter:       4   Parms: SM      M1      
 Computing Diagnostic #    217  SIheff       Counter:       4   Parms: SM      M1      
 Computing Diagnostic #    219  SIhsnow      Counter:       4   Parms: SM      M1      
 Computing Diagnostic #     83  sIceLoad     Counter:       4   Parms: SM      U1      
 Computing Diagnostic #    223  SIuice       Counter:       4   Parms: UU      M1      
           Vector  Mate for  SIuice       Diagnostic #    224  SIvice   exists 
 Computing Diagnostic #    224  SIvice       Counter:       4   Parms: VV      M1      
           Vector  Mate for  SIvice       Diagnostic #    223  SIuice   exists 
 Computing Diagnostic #    225  SItaux       Counter:       4   Parms: UU      U1      
           Vector  Mate for  SItaux       Diagnostic #    226  SItauy   exists 
 Computing Diagnostic #    226  SItauy       Counter:       4   Parms: VV      U1      
           Vector  Mate for  SItauy       Diagnostic #    225  SItaux   exists 
 Computing Diagnostic #    285  SIareaN      Counter:       4   Parms: SM      MX      
 Computing Diagnostic #    284  SIheffN      Counter:       4   Parms: SM      MX      
 Computing Diagnostic #    286  SIhsnowN     Counter:       4   Parms: SM      MX      
 Compute Stats, Diag. #    214  SIarea    vol(   0 ): 3.580E+14  Parms: SM      M1      
 Compute Stats, Diag. #    217  SIheff    vol(   0 ): 3.580E+14  Parms: SM      M1      
 Compute Stats, Diag. #    219  SIhsnow   vol(   0 ): 3.580E+14  Parms: SM      M1      
 Compute Stats, Diag. #     83  sIceLoad  vol(   0 ): 3.580E+14  Parms: SM      U1      
 Compute Stats, Diag. #    223  SIuice    vol(   0 ): 3.513E+14  Parms: UU      M1      
 Compute Stats, Diag. #    224  SIvice    vol(   0 ): 3.508E+14  Parms: VV      M1      
 Compute Stats, Diag. #    225  SItaux    vol(   0 ): 3.513E+14  Parms: UU      U1      
 Compute Stats, Diag. #    226  SItauy    vol(   0 ): 3.508E+14  Parms: VV      U1      
 cg2d: Sum(rhs),rhsMax =  -4.64271083019615E+01  2.88799845942288E-01
 Compute Stats, Diag. #    214  SIarea    vol(   0 ): 3.580E+14  Parms: SM      M1      
 Compute Stats, Diag. #    217  SIheff    vol(   0 ): 3.580E+14  Parms: SM      M1      
 Compute Stats, Diag. #    219  SIhsnow   vol(   0 ): 3.580E+14  Parms: SM      M1      
 Compute Stats, Diag. #     83  sIceLoad  vol(   0 ): 3.580E+14  Parms: SM      U1      
 Compute Stats, Diag. #    223  SIuice    vol(   0 ): 3.513E+14  Parms: UU      M1      
 Compute Stats, Diag. #    224  SIvice    vol(   0 ): 3.508E+14  Parms: VV      M1      
 Compute Stats, Diag. #    225  SItaux    vol(   0 ): 3.513E+14  Parms: UU      U1      
 Compute Stats, Diag. #    226  SItauy    vol(   0 ): 3.508E+14  Parms: VV      U1      
 cg2d: Sum(rhs),rhsMax =  -4.65413936614554E+01  2.88808985045799E-01
 Compute Stats, Diag. #    214  SIarea    vol(   0 ): 3.580E+14  Parms: SM      M1      
 Compute Stats, Diag. #    217  SIheff    vol(   0 ): 3.580E+14  Parms: SM      M1      
 Compute Stats, Diag. #    219  SIhsnow   vol(   0 ): 3.580E+14  Parms: SM      M1      
 Compute Stats, Diag. #     83  sIceLoad  vol(   0 ): 3.580E+14  Parms: SM      U1      
 Compute Stats, Diag. #    223  SIuice    vol(   0 ): 3.513E+14  Parms: UU      M1      
 Compute Stats, Diag. #    224  SIvice    vol(   0 ): 3.508E+14  Parms: VV      M1      
 Compute Stats, Diag. #    225  SItaux    vol(   0 ): 3.513E+14  Parms: UU      U1      
 Compute Stats, Diag. #    226  SItauy    vol(   0 ): 3.508E+14  Parms: VV      U1      
 cg2d: Sum(rhs),rhsMax =  -4.66571984758824E+01  2.88819012082388E-01
 Compute Stats, Diag. #    214  SIarea    vol(   0 ): 3.580E+14  Parms: SM      M1      
 Compute Stats, Diag. #    217  SIheff    vol(   0 ): 3.580E+14  Parms: SM      M1      
 Compute Stats, Diag. #    219  SIhsnow   vol(   0 ): 3.580E+14  Parms: SM      M1      
 Compute Stats, Diag. #     83  sIceLoad  vol(   0 ): 3.580E+14  Parms: SM      U1      
 Compute Stats, Diag. #    223  SIuice    vol(   0 ): 3.513E+14  Parms: UU      M1      
 Compute Stats, Diag. #    224  SIvice    vol(   0 ): 3.508E+14  Parms: VV      M1      
 Compute Stats, Diag. #    225  SItaux    vol(   0 ): 3.513E+14  Parms: UU      U1      
 Compute Stats, Diag. #    226  SItauy    vol(   0 ): 3.508E+14  Parms: VV      U1      
 cg2d: Sum(rhs),rhsMax =  -4.67782090502658E+01  2.88830082312410E-01
 Computing Diagnostic #     86  oceQnet      Counter:       4   Parms: SM      U1      
 Computing Diagnostic #     87  oceQsw       Counter:       4   Parms: SM      U1      
 Computing Diagnostic #     84  oceFWflx     Counter:       4   Parms: SM      U1      
 Computing Diagnostic #     85  oceSflux     Counter:       4   Parms: SM      U1      
 Computing Diagnostic #     80  oceTAUX      Counter:       4   Parms: UU      U1      
           Vector  Mate for  oceTAUX      Diagnostic #     81  oceTAUY  exists 
 Computing Diagnostic #     81  oceTAUY      Counter:       4   Parms: VV      U1      
           Vector  Mate for  oceTAUY      Diagnostic #     80  oceTAUX  exists 
 Computing Diagnostic #     26  THETA        Counter:       4   Parms: SMR     MR      
 Computing Diagnostic #     27  SALT         Counter:       4   Parms: SMR     MR      
 Computing Diagnostic #     30  UVEL         Counter:       4   Parms: UUR     MR      
           Vector  Mate for  UVEL         Diagnostic #     31  VVEL     exists 
 Computing Diagnostic #     31  VVEL         Counter:       4   Parms: VVR     MR      
           Vector  Mate for  VVEL         Diagnostic #     30  UVEL     exists 
 Computing Diagnostic #    214  SIarea       Counter:       4   Parms: SM      M1      
 Computing Diagnostic #    217  SIheff       Counter:       4   Parms: SM      M1      
 Computing Diagnostic #    219  SIhsnow      Counter:       4   Parms: SM      M1      
 Computing Diagnostic #     83  sIceLoad     Counter:       4   Parms: SM      U1      
 Computing Diagnostic #    223  SIuice       Counter:       4   Parms: UU      M1      
           Vector  Mate for  SIuice       Diagnostic #    224  SIvice   exists 
 Computing Diagnostic #    224  SIvice       Counter:       4   Parms: VV      M1      
           Vector  Mate for  SIvice       Diagnostic #    223  SIuice   exists 
 Computing Diagnostic #    225  SItaux       Counter:       4   Parms: UU      U1      
           Vector  Mate for  SItaux       Diagnostic #    226  SItauy   exists 
 Computing Diagnostic #    226  SItauy       Counter:       4   Parms: VV      U1      
           Vector  Mate for  SItauy       Diagnostic #    225  SItaux   exists 
 Computing Diagnostic #    285  SIareaN      Counter:       4   Parms: SM      MX      
 Computing Diagnostic #    284  SIheffN      Counter:       4   Parms: SM      MX      
 Computing Diagnostic #    286  SIhsnowN     Counter:       4   Parms: SM      MX      
 Compute Stats, Diag. #    214  SIarea    vol(   0 ): 3.580E+14  Parms: SM      M1      
 Compute Stats, Diag. #    217  SIheff    vol(   0 ): 3.580E+14  Parms: SM      M1      
 Compute Stats, Diag. #    219  SIhsnow   vol(   0 ): 3.580E+14  Parms: SM      M1      
 Compute Stats, Diag. #     83  sIceLoad  vol(   0 ): 3.580E+14  Parms: SM      U1      
 Compute Stats, Diag. #    223  SIuice    vol(   0 ): 3.513E+14  Parms: UU      M1      
 Compute Stats, Diag. #    224  SIvice    vol(   0 ): 3.508E+14  Parms: VV      M1      
 Compute Stats, Diag. #    225  SItaux    vol(   0 ): 3.513E+14  Parms: UU      U1      
 Compute Stats, Diag. #    226  SItauy    vol(   0 ): 3.508E+14  Parms: VV      U1      
 cg2d: Sum(rhs),rhsMax =  -4.68961181110813E+01  2.88843500213849E-01
 Compute Stats, Diag. #    214  SIarea    vol(   0 ): 3.580E+14  Parms: SM      M1      
 Compute Stats, Diag. #    217  SIheff    vol(   0 ): 3.580E+14  Parms: SM      M1      
 Compute Stats, Diag. #    219  SIhsnow   vol(   0 ): 3.580E+14  Parms: SM      M1      
 Compute Stats, Diag. #     83  sIceLoad  vol(   0 ): 3.580E+14  Parms: SM      U1      
 Compute Stats, Diag. #    223  SIuice    vol(   0 ): 3.513E+14  Parms: UU      M1      
 Compute Stats, Diag. #    224  SIvice    vol(   0 ): 3.508E+14  Parms: VV      M1      
 Compute Stats, Diag. #    225  SItaux    vol(   0 ): 3.513E+14  Parms: UU      U1      
 Compute Stats, Diag. #    226  SItauy    vol(   0 ): 3.508E+14  Parms: VV      U1      
 cg2d: Sum(rhs),rhsMax =  -4.70188888958517E+01  2.88860403064729E-01
 Compute Stats, Diag. #    214  SIarea    vol(   0 ): 3.580E+14  Parms: SM      M1      
 Compute Stats, Diag. #    217  SIheff    vol(   0 ): 3.580E+14  Parms: SM      M1      
 Compute Stats, Diag. #    219  SIhsnow   vol(   0 ): 3.580E+14  Parms: SM      M1      
 Compute Stats, Diag. #     83  sIceLoad  vol(   0 ): 3.580E+14  Parms: SM      U1      
 Compute Stats, Diag. #    223  SIuice    vol(   0 ): 3.513E+14  Parms: UU      M1      
 Compute Stats, Diag. #    224  SIvice    vol(   0 ): 3.508E+14  Parms: VV      M1      
 Compute Stats, Diag. #    225  SItaux    vol(   0 ): 3.513E+14  Parms: UU      U1      
 Compute Stats, Diag. #    226  SItauy    vol(   0 ): 3.508E+14  Parms: VV      U1      
 cg2d: Sum(rhs),rhsMax =  -4.71437258036449E+01  2.88881413069800E-01
 Compute Stats, Diag. #    214  SIarea    vol(   0 ): 3.580E+14  Parms: SM      M1      
 Compute Stats, Diag. #    217  SIheff    vol(   0 ): 3.580E+14  Parms: SM      M1      
 Compute Stats, Diag. #    219  SIhsnow   vol(   0 ): 3.580E+14  Parms: SM      M1      
 Compute Stats, Diag. #     83  sIceLoad  vol(   0 ): 3.580E+14  Parms: SM      U1      
 Compute Stats, Diag. #    223  SIuice    vol(   0 ): 3.513E+14  Parms: UU      M1      
 Compute Stats, Diag. #    224  SIvice    vol(   0 ): 3.508E+14  Parms: VV      M1      
 Compute Stats, Diag. #    225  SItaux    vol(   0 ): 3.513E+14  Parms: UU      U1      
 Compute Stats, Diag. #    226  SItauy    vol(   0 ): 3.508E+14  Parms: VV      U1      
 cg2d: Sum(rhs),rhsMax =  -4.72767877894613E+01  2.88917971103018E-01
(PID.TID 0000.0001)      cg2d_init_res =   4.18022432728315E-02
(PID.TID 0000.0001)      cg2d_iters(min,last) =      -1      24
(PID.TID 0000.0001)      cg2d_last_res =   2.50620145897805E-05
(PID.TID 0000.0001) // =======================================================
(PID.TID 0000.0001) // Begin MONITOR dynamic field statistics
(PID.TID 0000.0001) // =======================================================
(PID.TID 0000.0001) %MON time_tsnumber                =                  1128
(PID.TID 0000.0001) %MON time_secondsf                =   1.0152000000000E+06
(PID.TID 0000.0001) %MON dynstat_eta_max              =   1.0110297224868E+00
(PID.TID 0000.0001) %MON dynstat_eta_min              =  -1.8160169419195E+00
(PID.TID 0000.0001) %MON dynstat_eta_mean             =   1.4955157898224E-03
(PID.TID 0000.0001) %MON dynstat_eta_sd               =   6.2394469725172E-01
(PID.TID 0000.0001) %MON dynstat_eta_del2             =   5.2027348237150E-05
(PID.TID 0000.0001) %MON dynstat_uvel_max             =   6.6369177163484E-01
(PID.TID 0000.0001) %MON dynstat_uvel_min             =  -9.0299875148218E-01
(PID.TID 0000.0001) %MON dynstat_uvel_mean            =   1.3480660687411E-03
(PID.TID 0000.0001) %MON dynstat_uvel_sd              =   1.7911335319529E-02
(PID.TID 0000.0001) %MON dynstat_uvel_del2            =   6.9275712252270E-06
(PID.TID 0000.0001) %MON dynstat_vvel_max             =   7.7194575375387E-01
(PID.TID 0000.0001) %MON dynstat_vvel_min             =  -1.0396484310856E+00
(PID.TID 0000.0001) %MON dynstat_vvel_mean            =   1.0456312091992E-03
(PID.TID 0000.0001) %MON dynstat_vvel_sd              =   1.9457211369158E-02
(PID.TID 0000.0001) %MON dynstat_vvel_del2            =   7.2273025367994E-06
(PID.TID 0000.0001) %MON dynstat_wvel_max             =   3.1370715605900E-04
(PID.TID 0000.0001) %MON dynstat_wvel_min             =  -7.8083722916615E-04
(PID.TID 0000.0001) %MON dynstat_wvel_mean            =  -8.7007768732983E-10
(PID.TID 0000.0001) %MON dynstat_wvel_sd              =   1.5376596014980E-05
(PID.TID 0000.0001) %MON dynstat_wvel_del2            =   1.4019736817344E-08
(PID.TID 0000.0001) %MON dynstat_theta_max            =   3.1599154697302E+01
(PID.TID 0000.0001) %MON dynstat_theta_min            =  -2.0395977472155E+00
(PID.TID 0000.0001) %MON dynstat_theta_mean           =   3.5900684053545E+00
(PID.TID 0000.0001) %MON dynstat_theta_sd             =   4.4367015796768E+00
(PID.TID 0000.0001) %MON dynstat_theta_del2           =   8.9827301512185E-05
(PID.TID 0000.0001) %MON dynstat_salt_max             =   4.0711548289892E+01
(PID.TID 0000.0001) %MON dynstat_salt_min             =   6.3687224856185E+00
(PID.TID 0000.0001) %MON dynstat_salt_mean            =   3.4725558456815E+01
(PID.TID 0000.0001) %MON dynstat_salt_sd              =   3.7712734241296E-01
(PID.TID 0000.0001) %MON dynstat_salt_del2            =   3.5373970962303E-05
(PID.TID 0000.0001) %MON dynstat_sst_max              =   3.1599141740569E+01
(PID.TID 0000.0001) %MON dynstat_sst_min              =  -1.8110387512939E+00
(PID.TID 0000.0001) %MON dynstat_sst_mean             =   1.8440584259032E+01
(PID.TID 0000.0001) %MON dynstat_sst_sd               =   1.0298579102353E+01
(PID.TID 0000.0001) %MON dynstat_sst_del2             =   7.9009327863010E-04
(PID.TID 0000.0001) %MON dynstat_sss_max              =   3.9097840690699E+01
(PID.TID 0000.0001) %MON dynstat_sss_min              =   6.3687224856185E+00
(PID.TID 0000.0001) %MON dynstat_sss_mean             =   3.4701317106684E+01
(PID.TID 0000.0001) %MON dynstat_sss_sd               =   1.1845338203203E+00
(PID.TID 0000.0001) %MON dynstat_sss_del2             =   1.0574239178750E-03
(PID.TID 0000.0001) %MON forcing_qnet_max             =   6.3386425781250E+02
(PID.TID 0000.0001) %MON forcing_qnet_min             =  -6.9552742199651E+02
(PID.TID 0000.0001) %MON forcing_qnet_mean            =   1.1391490085014E+01
(PID.TID 0000.0001) %MON forcing_qnet_sd              =   2.1495450590156E+02
(PID.TID 0000.0001) %MON forcing_qnet_del2            =   3.0681695536546E-01
(PID.TID 0000.0001) %MON forcing_qsw_max              =   0.0000000000000E+00
(PID.TID 0000.0001) %MON forcing_qsw_min              =  -1.0887023697916E+02
(PID.TID 0000.0001) %MON forcing_qsw_mean             =  -1.7117901689480E+01
(PID.TID 0000.0001) %MON forcing_qsw_sd               =   2.9300660023528E+01
(PID.TID 0000.0001) %MON forcing_qsw_del2             =   2.1302548961175E-02
(PID.TID 0000.0001) %MON forcing_empmr_max            =   7.9291453585029E-04
(PID.TID 0000.0001) %MON forcing_empmr_min            =  -7.0989787578583E-02
(PID.TID 0000.0001) %MON forcing_empmr_mean           =  -4.8124907499795E-06
(PID.TID 0000.0001) %MON forcing_empmr_sd             =   3.0155729807998E-04
(PID.TID 0000.0001) %MON forcing_empmr_del2           =   3.1778796574136E-06
(PID.TID 0000.0001) %MON forcing_fu_max               =   7.0138320326805E-01
(PID.TID 0000.0001) %MON forcing_fu_min               =  -9.6036089321555E-01
(PID.TID 0000.0001) %MON forcing_fu_mean              =   2.6203093722979E-03
(PID.TID 0000.0001) %MON forcing_fu_sd                =   1.0548769186818E-01
(PID.TID 0000.0001) %MON forcing_fu_del2              =   1.3341810592851E-04
(PID.TID 0000.0001) %MON forcing_fv_max               =   4.4978332519532E-01
(PID.TID 0000.0001) %MON forcing_fv_min               =  -9.7405055165291E-01
(PID.TID 0000.0001) %MON forcing_fv_mean              =  -1.1221515608931E-02
(PID.TID 0000.0001) %MON forcing_fv_sd                =   1.0469175393629E-01
(PID.TID 0000.0001) %MON forcing_fv_del2              =   1.4203998488151E-04
(PID.TID 0000.0001) %MON trAdv_CFL_u_max              =   1.1560136993894E-02
(PID.TID 0000.0001) %MON trAdv_CFL_v_max              =   1.7443874437031E-02
(PID.TID 0000.0001) %MON trAdv_CFL_w_max              =   2.1911072162399E-02
(PID.TID 0000.0001) %MON advcfl_uvel_max              =   9.8799010953914E-03
(PID.TID 0000.0001) %MON advcfl_vvel_max              =   1.6476286550691E-02
(PID.TID 0000.0001) %MON advcfl_wvel_max              =   2.4055636324925E-02
(PID.TID 0000.0001) %MON advcfl_W_hf_max              =   2.5229864184231E-02
(PID.TID 0000.0001) %MON pe_b_mean                    =   5.1209766509611E-04
(PID.TID 0000.0001) %MON ke_max                       =   5.6142666049080E-01
(PID.TID 0000.0001) %MON ke_mean                      =   3.3865131020477E-04
(PID.TID 0000.0001) %MON ke_vol                       =   1.3349984108477E+18
(PID.TID 0000.0001) %MON vort_r_min                   =  -2.2564054147830E-05
(PID.TID 0000.0001) %MON vort_r_max                   =   2.5764715649373E-05
(PID.TID 0000.0001) %MON vort_a_mean                  =  -1.9727864647440E-05
(PID.TID 0000.0001) %MON vort_a_sd                    =   7.4542977070311E-05
(PID.TID 0000.0001) %MON vort_p_mean                  =  -2.1760524826297E-05
(PID.TID 0000.0001) %MON vort_p_sd                    =   9.7247016799547E-05
(PID.TID 0000.0001) %MON surfExpan_theta_mean         =   1.5287390684802E-07
(PID.TID 0000.0001) %MON surfExpan_salt_mean          =   4.5190943417711E-08
(PID.TID 0000.0001) // =======================================================
(PID.TID 0000.0001) // End MONITOR dynamic field statistics
(PID.TID 0000.0001) // =======================================================
(PID.TID 0000.0001) // =======================================================
(PID.TID 0000.0001) // Begin MONITOR SEAICE statistics
(PID.TID 0000.0001) // =======================================================
(PID.TID 0000.0001) %MON seaice_tsnumber              =                  1128
(PID.TID 0000.0001) %MON seaice_time_sec              =   1.0152000000000E+06
(PID.TID 0000.0001) %MON seaice_uice_max              =   4.0000000000000E-01
(PID.TID 0000.0001) %MON seaice_uice_min              =  -4.0000000000000E-01
(PID.TID 0000.0001) %MON seaice_uice_mean             =  -8.3054598624025E-03
(PID.TID 0000.0001) %MON seaice_uice_sd               =   1.9802383574176E-01
(PID.TID 0000.0001) %MON seaice_uice_del2             =   2.2931571122150E-04
(PID.TID 0000.0001) %MON seaice_vice_max              =   4.0000000000000E-01
(PID.TID 0000.0001) %MON seaice_vice_min              =  -4.0000000000000E-01
(PID.TID 0000.0001) %MON seaice_vice_mean             =  -2.1960776359499E-02
(PID.TID 0000.0001) %MON seaice_vice_sd               =   2.1302038025672E-01
(PID.TID 0000.0001) %MON seaice_vice_del2             =   2.3932563818061E-04
(PID.TID 0000.0001) %MON seaice_area_max              =   9.9999999813735E-01
(PID.TID 0000.0001) %MON seaice_area_min              =   0.0000000000000E+00
(PID.TID 0000.0001) %MON seaice_area_mean             =   6.4579608582165E-02
(PID.TID 0000.0001) %MON seaice_area_sd               =   2.2758737633227E-01
(PID.TID 0000.0001) %MON seaice_area_del2             =   3.7246723648602E-04
(PID.TID 0000.0001) %MON seaice_heff_max              =   2.4893318562070E+01
(PID.TID 0000.0001) %MON seaice_heff_min              =   0.0000000000000E+00
(PID.TID 0000.0001) %MON seaice_heff_mean             =   2.1141412387929E-01
(PID.TID 0000.0001) %MON seaice_heff_sd               =   1.0654904216645E+00
(PID.TID 0000.0001) %MON seaice_heff_del2             =   3.8122943670235E-03
(PID.TID 0000.0001) %MON seaice_hsnow_max             =   8.2222754349059E+00
(PID.TID 0000.0001) %MON seaice_hsnow_min             =   0.0000000000000E+00
(PID.TID 0000.0001) %MON seaice_hsnow_mean            =   2.3868169922756E-02
(PID.TID 0000.0001) %MON seaice_hsnow_sd              =   1.5574305950040E-01
(PID.TID 0000.0001) %MON seaice_hsnow_del2            =   1.2337088977951E-03
(PID.TID 0000.0001) // =======================================================
(PID.TID 0000.0001) // End MONITOR SEAICE statistics
(PID.TID 0000.0001) // =======================================================
 Computing Diagnostic #     86  oceQnet      Counter:       4   Parms: SM      U1      
 Computing Diagnostic #     87  oceQsw       Counter:       4   Parms: SM      U1      
 Computing Diagnostic #     84  oceFWflx     Counter:       4   Parms: SM      U1      
 Computing Diagnostic #     85  oceSflux     Counter:       4   Parms: SM      U1      
 Computing Diagnostic #     80  oceTAUX      Counter:       4   Parms: UU      U1      
           Vector  Mate for  oceTAUX      Diagnostic #     81  oceTAUY  exists 
 Computing Diagnostic #     81  oceTAUY      Counter:       4   Parms: VV      U1      
           Vector  Mate for  oceTAUY      Diagnostic #     80  oceTAUX  exists 
 Computing Diagnostic #     26  THETA        Counter:       4   Parms: SMR     MR      
 Computing Diagnostic #     27  SALT         Counter:       4   Parms: SMR     MR      
 Computing Diagnostic #     30  UVEL         Counter:       4   Parms: UUR     MR      
           Vector  Mate for  UVEL         Diagnostic #     31  VVEL     exists 
 Computing Diagnostic #     31  VVEL         Counter:       4   Parms: VVR     MR      
           Vector  Mate for  VVEL         Diagnostic #     30  UVEL     exists 
 Computing Diagnostic #    214  SIarea       Counter:       4   Parms: SM      M1      
 Computing Diagnostic #    217  SIheff       Counter:       4   Parms: SM      M1      
 Computing Diagnostic #    219  SIhsnow      Counter:       4   Parms: SM      M1      
 Computing Diagnostic #     83  sIceLoad     Counter:       4   Parms: SM      U1      
 Computing Diagnostic #    223  SIuice       Counter:       4   Parms: UU      M1      
           Vector  Mate for  SIuice       Diagnostic #    224  SIvice   exists 
 Computing Diagnostic #    224  SIvice       Counter:       4   Parms: VV      M1      
           Vector  Mate for  SIvice       Diagnostic #    223  SIuice   exists 
 Computing Diagnostic #    225  SItaux       Counter:       4   Parms: UU      U1      
           Vector  Mate for  SItaux       Diagnostic #    226  SItauy   exists 
 Computing Diagnostic #    226  SItauy       Counter:       4   Parms: VV      U1      
           Vector  Mate for  SItauy       Diagnostic #    225  SItaux   exists 
 Computing Diagnostic #    285  SIareaN      Counter:       4   Parms: SM      MX      
 Computing Diagnostic #    284  SIheffN      Counter:       4   Parms: SM      MX      
 Computing Diagnostic #    286  SIhsnowN     Counter:       4   Parms: SM      MX      
 Compute Stats, Diag. #    214  SIarea    vol(   0 ): 3.580E+14  Parms: SM      M1      
 Compute Stats, Diag. #    217  SIheff    vol(   0 ): 3.580E+14  Parms: SM      M1      
 Compute Stats, Diag. #    219  SIhsnow   vol(   0 ): 3.580E+14  Parms: SM      M1      
 Compute Stats, Diag. #     83  sIceLoad  vol(   0 ): 3.580E+14  Parms: SM      U1      
 Compute Stats, Diag. #    223  SIuice    vol(   0 ): 3.513E+14  Parms: UU      M1      
 Compute Stats, Diag. #    224  SIvice    vol(   0 ): 3.508E+14  Parms: VV      M1      
 Compute Stats, Diag. #    225  SItaux    vol(   0 ): 3.513E+14  Parms: UU      U1      
 Compute Stats, Diag. #    226  SItauy    vol(   0 ): 3.508E+14  Parms: VV      U1      
 cg2d: Sum(rhs),rhsMax =  -4.74191665757041E+01  2.88994551885887E-01
 Compute Stats, Diag. #    214  SIarea    vol(   0 ): 3.580E+14  Parms: SM      M1      
 Compute Stats, Diag. #    217  SIheff    vol(   0 ): 3.580E+14  Parms: SM      M1      
 Compute Stats, Diag. #    219  SIhsnow   vol(   0 ): 3.580E+14  Parms: SM      M1      
 Compute Stats, Diag. #     83  sIceLoad  vol(   0 ): 3.580E+14  Parms: SM      U1      
 Compute Stats, Diag. #    223  SIuice    vol(   0 ): 3.513E+14  Parms: UU      M1      
 Compute Stats, Diag. #    224  SIvice    vol(   0 ): 3.508E+14  Parms: VV      M1      
 Compute Stats, Diag. #    225  SItaux    vol(   0 ): 3.513E+14  Parms: UU      U1      
 Compute Stats, Diag. #    226  SItauy    vol(   0 ): 3.508E+14  Parms: VV      U1      
 cg2d: Sum(rhs),rhsMax =  -4.75579667025807E+01  2.89078911685669E-01
 Compute Stats, Diag. #    214  SIarea    vol(   0 ): 3.580E+14  Parms: SM      M1      
 Compute Stats, Diag. #    217  SIheff    vol(   0 ): 3.580E+14  Parms: SM      M1      
 Compute Stats, Diag. #    219  SIhsnow   vol(   0 ): 3.580E+14  Parms: SM      M1      
 Compute Stats, Diag. #     83  sIceLoad  vol(   0 ): 3.580E+14  Parms: SM      U1      
 Compute Stats, Diag. #    223  SIuice    vol(   0 ): 3.513E+14  Parms: UU      M1      
 Compute Stats, Diag. #    224  SIvice    vol(   0 ): 3.508E+14  Parms: VV      M1      
 Compute Stats, Diag. #    225  SItaux    vol(   0 ): 3.513E+14  Parms: UU      U1      
 Compute Stats, Diag. #    226  SItauy    vol(   0 ): 3.508E+14  Parms: VV      U1      
 cg2d: Sum(rhs),rhsMax =  -4.76911675660778E+01  2.89171166866079E-01
 Compute Stats, Diag. #    214  SIarea    vol(   0 ): 3.580E+14  Parms: SM      M1      
 Compute Stats, Diag. #    217  SIheff    vol(   0 ): 3.580E+14  Parms: SM      M1      
 Compute Stats, Diag. #    219  SIhsnow   vol(   0 ): 3.580E+14  Parms: SM      M1      
 Compute Stats, Diag. #     83  sIceLoad  vol(   0 ): 3.580E+14  Parms: SM      U1      
 Compute Stats, Diag. #    223  SIuice    vol(   0 ): 3.513E+14  Parms: UU      M1      
 Compute Stats, Diag. #    224  SIvice    vol(   0 ): 3.508E+14  Parms: VV      M1      
 Compute Stats, Diag. #    225  SItaux    vol(   0 ): 3.513E+14  Parms: UU      U1      
 Compute Stats, Diag. #    226  SItauy    vol(   0 ): 3.508E+14  Parms: VV      U1      
 cg2d: Sum(rhs),rhsMax =  -4.78297693834096E+01  2.89270845477373E-01
 Computing Diagnostic #     86  oceQnet      Counter:       4   Parms: SM      U1      
 Computing Diagnostic #     87  oceQsw       Counter:       4   Parms: SM      U1      
 Computing Diagnostic #     84  oceFWflx     Counter:       4   Parms: SM      U1      
 Computing Diagnostic #     85  oceSflux     Counter:       4   Parms: SM      U1      
 Computing Diagnostic #     80  oceTAUX      Counter:       4   Parms: UU      U1      
           Vector  Mate for  oceTAUX      Diagnostic #     81  oceTAUY  exists 
 Computing Diagnostic #     81  oceTAUY      Counter:       4   Parms: VV      U1      
           Vector  Mate for  oceTAUY      Diagnostic #     80  oceTAUX  exists 
 Computing Diagnostic #     26  THETA        Counter:       4   Parms: SMR     MR      
 Computing Diagnostic #     27  SALT         Counter:       4   Parms: SMR     MR      
 Computing Diagnostic #     30  UVEL         Counter:       4   Parms: UUR     MR      
           Vector  Mate for  UVEL         Diagnostic #     31  VVEL     exists 
 Computing Diagnostic #     31  VVEL         Counter:       4   Parms: VVR     MR      
           Vector  Mate for  VVEL         Diagnostic #     30  UVEL     exists 
 Computing Diagnostic #    214  SIarea       Counter:       4   Parms: SM      M1      
 Computing Diagnostic #    217  SIheff       Counter:       4   Parms: SM      M1      
 Computing Diagnostic #    219  SIhsnow      Counter:       4   Parms: SM      M1      
 Computing Diagnostic #     83  sIceLoad     Counter:       4   Parms: SM      U1      
 Computing Diagnostic #    223  SIuice       Counter:       4   Parms: UU      M1      
           Vector  Mate for  SIuice       Diagnostic #    224  SIvice   exists 
 Computing Diagnostic #    224  SIvice       Counter:       4   Parms: VV      M1      
           Vector  Mate for  SIvice       Diagnostic #    223  SIuice   exists 
 Computing Diagnostic #    225  SItaux       Counter:       4   Parms: UU      U1      
           Vector  Mate for  SItaux       Diagnostic #    226  SItauy   exists 
 Computing Diagnostic #    226  SItauy       Counter:       4   Parms: VV      U1      
           Vector  Mate for  SItauy       Diagnostic #    225  SItaux   exists 
 Computing Diagnostic #    285  SIareaN      Counter:       4   Parms: SM      MX      
 Computing Diagnostic #    284  SIheffN      Counter:       4   Parms: SM      MX      
 Computing Diagnostic #    286  SIhsnowN     Counter:       4   Parms: SM      MX      
 Compute Stats, Diag. #    214  SIarea    vol(   0 ): 3.580E+14  Parms: SM      M1      
 Compute Stats, Diag. #    217  SIheff    vol(   0 ): 3.580E+14  Parms: SM      M1      
 Compute Stats, Diag. #    219  SIhsnow   vol(   0 ): 3.580E+14  Parms: SM      M1      
 Compute Stats, Diag. #     83  sIceLoad  vol(   0 ): 3.580E+14  Parms: SM      U1      
 Compute Stats, Diag. #    223  SIuice    vol(   0 ): 3.513E+14  Parms: UU      M1      
 Compute Stats, Diag. #    224  SIvice    vol(   0 ): 3.508E+14  Parms: VV      M1      
 Compute Stats, Diag. #    225  SItaux    vol(   0 ): 3.513E+14  Parms: UU      U1      
 Compute Stats, Diag. #    226  SItauy    vol(   0 ): 3.508E+14  Parms: VV      U1      
 cg2d: Sum(rhs),rhsMax =  -4.79711336919904E+01  2.89377675084983E-01
 Compute Stats, Diag. #    214  SIarea    vol(   0 ): 3.580E+14  Parms: SM      M1      
 Compute Stats, Diag. #    217  SIheff    vol(   0 ): 3.580E+14  Parms: SM      M1      
 Compute Stats, Diag. #    219  SIhsnow   vol(   0 ): 3.580E+14  Parms: SM      M1      
 Compute Stats, Diag. #     83  sIceLoad  vol(   0 ): 3.580E+14  Parms: SM      U1      
 Compute Stats, Diag. #    223  SIuice    vol(   0 ): 3.513E+14  Parms: UU      M1      
 Compute Stats, Diag. #    224  SIvice    vol(   0 ): 3.508E+14  Parms: VV      M1      
 Compute Stats, Diag. #    225  SItaux    vol(   0 ): 3.513E+14  Parms: UU      U1      
 Compute Stats, Diag. #    226  SItauy    vol(   0 ): 3.508E+14  Parms: VV      U1      
 cg2d: Sum(rhs),rhsMax =  -4.81140842220699E+01  2.89491798141445E-01
 Compute Stats, Diag. #    214  SIarea    vol(   0 ): 3.580E+14  Parms: SM      M1      
 Compute Stats, Diag. #    217  SIheff    vol(   0 ): 3.580E+14  Parms: SM      M1      
 Compute Stats, Diag. #    219  SIhsnow   vol(   0 ): 3.580E+14  Parms: SM      M1      
 Compute Stats, Diag. #     83  sIceLoad  vol(   0 ): 3.580E+14  Parms: SM      U1      
 Compute Stats, Diag. #    223  SIuice    vol(   0 ): 3.513E+14  Parms: UU      M1      
 Compute Stats, Diag. #    224  SIvice    vol(   0 ): 3.508E+14  Parms: VV      M1      
 Compute Stats, Diag. #    225  SItaux    vol(   0 ): 3.513E+14  Parms: UU      U1      
 Compute Stats, Diag. #    226  SItauy    vol(   0 ): 3.508E+14  Parms: VV      U1      
 cg2d: Sum(rhs),rhsMax =  -4.82524466358457E+01  2.89611563483994E-01
 Compute Stats, Diag. #    214  SIarea    vol(   0 ): 3.580E+14  Parms: SM      M1      
 Compute Stats, Diag. #    217  SIheff    vol(   0 ): 3.580E+14  Parms: SM      M1      
 Compute Stats, Diag. #    219  SIhsnow   vol(   0 ): 3.580E+14  Parms: SM      M1      
 Compute Stats, Diag. #     83  sIceLoad  vol(   0 ): 3.580E+14  Parms: SM      U1      
 Compute Stats, Diag. #    223  SIuice    vol(   0 ): 3.513E+14  Parms: UU      M1      
 Compute Stats, Diag. #    224  SIvice    vol(   0 ): 3.508E+14  Parms: VV      M1      
 Compute Stats, Diag. #    225  SItaux    vol(   0 ): 3.513E+14  Parms: UU      U1      
 Compute Stats, Diag. #    226  SItauy    vol(   0 ): 3.508E+14  Parms: VV      U1      
 cg2d: Sum(rhs),rhsMax =  -4.83861482103590E+01  2.89737092183536E-01
(PID.TID 0000.0001)      cg2d_init_res =   4.06074169212082E-02
(PID.TID 0000.0001)      cg2d_iters(min,last) =      -1      24
(PID.TID 0000.0001)      cg2d_last_res =   2.30321891633439E-05
(PID.TID 0000.0001) // =======================================================
(PID.TID 0000.0001) // Begin MONITOR dynamic field statistics
(PID.TID 0000.0001) // =======================================================
(PID.TID 0000.0001) %MON time_tsnumber                =                  1136
(PID.TID 0000.0001) %MON time_secondsf                =   1.0224000000000E+06
(PID.TID 0000.0001) %MON dynstat_eta_max              =   1.0118680095273E+00
(PID.TID 0000.0001) %MON dynstat_eta_min              =  -1.8181441692068E+00
(PID.TID 0000.0001) %MON dynstat_eta_mean             =   1.5306084029974E-03
(PID.TID 0000.0001) %MON dynstat_eta_sd               =   6.2420468672305E-01
(PID.TID 0000.0001) %MON dynstat_eta_del2             =   5.2053512684286E-05
(PID.TID 0000.0001) %MON dynstat_uvel_max             =   6.6359577414218E-01
(PID.TID 0000.0001) %MON dynstat_uvel_min             =  -9.0538163132256E-01
(PID.TID 0000.0001) %MON dynstat_uvel_mean            =   1.3473504981297E-03
(PID.TID 0000.0001) %MON dynstat_uvel_sd              =   1.7926561187727E-02
(PID.TID 0000.0001) %MON dynstat_uvel_del2            =   6.9297971237547E-06
(PID.TID 0000.0001) %MON dynstat_vvel_max             =   7.5069691078469E-01
(PID.TID 0000.0001) %MON dynstat_vvel_min             =  -1.0452056046594E+00
(PID.TID 0000.0001) %MON dynstat_vvel_mean            =   1.0565059057204E-03
(PID.TID 0000.0001) %MON dynstat_vvel_sd              =   1.9460727466447E-02
(PID.TID 0000.0001) %MON dynstat_vvel_del2            =   7.2243932808751E-06
(PID.TID 0000.0001) %MON dynstat_wvel_max             =   3.0775924885386E-04
(PID.TID 0000.0001) %MON dynstat_wvel_min             =  -7.8064805288756E-04
(PID.TID 0000.0001) %MON dynstat_wvel_mean            =   5.1073072091204E-10
(PID.TID 0000.0001) %MON dynstat_wvel_sd              =   1.5480156078126E-05
(PID.TID 0000.0001) %MON dynstat_wvel_del2            =   1.4026415055684E-08
(PID.TID 0000.0001) %MON dynstat_theta_max            =   3.1580467264108E+01
(PID.TID 0000.0001) %MON dynstat_theta_min            =  -2.0395916534501E+00
(PID.TID 0000.0001) %MON dynstat_theta_mean           =   3.5900660045378E+00
(PID.TID 0000.0001) %MON dynstat_theta_sd             =   4.4367038421400E+00
(PID.TID 0000.0001) %MON dynstat_theta_del2           =   8.9775100126100E-05
(PID.TID 0000.0001) %MON dynstat_salt_max             =   4.0711548863564E+01
(PID.TID 0000.0001) %MON dynstat_salt_min             =   6.3484479517174E+00
(PID.TID 0000.0001) %MON dynstat_salt_mean            =   3.4725558128877E+01
(PID.TID 0000.0001) %MON dynstat_salt_sd              =   3.7712876688584E-01
(PID.TID 0000.0001) %MON dynstat_salt_del2            =   3.5347330509009E-05
(PID.TID 0000.0001) %MON dynstat_sst_max              =   3.1580452387917E+01
(PID.TID 0000.0001) %MON dynstat_sst_min              =  -1.8099976296975E+00
(PID.TID 0000.0001) %MON dynstat_sst_mean             =   1.8442362539859E+01
(PID.TID 0000.0001) %MON dynstat_sst_sd               =   1.0299801997039E+01
(PID.TID 0000.0001) %MON dynstat_sst_del2             =   7.8897210628152E-04
(PID.TID 0000.0001) %MON dynstat_sss_max              =   3.9097842197473E+01
(PID.TID 0000.0001) %MON dynstat_sss_min              =   6.3484479517174E+00
(PID.TID 0000.0001) %MON dynstat_sss_mean             =   3.4701367066175E+01
(PID.TID 0000.0001) %MON dynstat_sss_sd               =   1.1847182470401E+00
(PID.TID 0000.0001) %MON dynstat_sss_del2             =   1.0538123298898E-03
(PID.TID 0000.0001) %MON forcing_qnet_max             =   5.8504937744141E+02
(PID.TID 0000.0001) %MON forcing_qnet_min             =  -8.5576402893410E+02
(PID.TID 0000.0001) %MON forcing_qnet_mean            =   7.7090662786595E-01
(PID.TID 0000.0001) %MON forcing_qnet_sd              =   2.0265340906178E+02
(PID.TID 0000.0001) %MON forcing_qnet_del2            =   2.9909987811855E-01
(PID.TID 0000.0001) %MON forcing_qsw_max              =   0.0000000000000E+00
(PID.TID 0000.0001) %MON forcing_qsw_min              =  -1.0916120727564E+02
(PID.TID 0000.0001) %MON forcing_qsw_mean             =  -1.8583129221262E+01
(PID.TID 0000.0001) %MON forcing_qsw_sd               =   2.8027292297232E+01
(PID.TID 0000.0001) %MON forcing_qsw_del2             =   2.0872380132296E-02
(PID.TID 0000.0001) %MON forcing_empmr_max            =   7.9250760609284E-04
(PID.TID 0000.0001) %MON forcing_empmr_min            =  -7.2029009461403E-02
(PID.TID 0000.0001) %MON forcing_empmr_mean           =  -4.8356229366513E-06
(PID.TID 0000.0001) %MON forcing_empmr_sd             =   3.0514759593835E-04
(PID.TID 0000.0001) %MON forcing_empmr_del2           =   3.1399779836620E-06
(PID.TID 0000.0001) %MON forcing_fu_max               =   7.9465934634209E-01
(PID.TID 0000.0001) %MON forcing_fu_min               =  -8.7725802612983E-01
(PID.TID 0000.0001) %MON forcing_fu_mean              =   2.8906697022730E-03
(PID.TID 0000.0001) %MON forcing_fu_sd                =   1.0583370654580E-01
(PID.TID 0000.0001) %MON forcing_fu_del2              =   1.3393061481691E-04
(PID.TID 0000.0001) %MON forcing_fv_max               =   4.8107044398785E-01
(PID.TID 0000.0001) %MON forcing_fv_min               =  -1.0780431032181E+00
(PID.TID 0000.0001) %MON forcing_fv_mean              =  -1.1364528910307E-02
(PID.TID 0000.0001) %MON forcing_fv_sd                =   1.0586261411937E-01
(PID.TID 0000.0001) %MON forcing_fv_del2              =   1.4523542486794E-04
(PID.TID 0000.0001) %MON trAdv_CFL_u_max              =   1.1698010078005E-02
(PID.TID 0000.0001) %MON trAdv_CFL_v_max              =   1.6995937987523E-02
(PID.TID 0000.0001) %MON trAdv_CFL_w_max              =   2.1902924781904E-02
(PID.TID 0000.0001) %MON advcfl_uvel_max              =   1.0015485135135E-02
(PID.TID 0000.0001) %MON advcfl_vvel_max              =   1.6022754649093E-02
(PID.TID 0000.0001) %MON advcfl_wvel_max              =   2.4047746933090E-02
(PID.TID 0000.0001) %MON advcfl_W_hf_max              =   2.5221736064855E-02
(PID.TID 0000.0001) %MON pe_b_mean                    =   5.1252465502214E-04
(PID.TID 0000.0001) %MON ke_max                       =   5.6906248047302E-01
(PID.TID 0000.0001) %MON ke_mean                      =   3.3899047171125E-04
(PID.TID 0000.0001) %MON ke_vol                       =   1.3349984234041E+18
(PID.TID 0000.0001) %MON vort_r_min                   =  -2.1739752948914E-05
(PID.TID 0000.0001) %MON vort_r_max                   =   2.4729926161561E-05
(PID.TID 0000.0001) %MON vort_a_mean                  =  -1.9727864647440E-05
(PID.TID 0000.0001) %MON vort_a_sd                    =   7.4542978271048E-05
(PID.TID 0000.0001) %MON vort_p_mean                  =  -2.1760524649852E-05
(PID.TID 0000.0001) %MON vort_p_sd                    =   9.7247089022632E-05
(PID.TID 0000.0001) %MON surfExpan_theta_mean         =   2.0036147013049E-07
(PID.TID 0000.0001) %MON surfExpan_salt_mean          =   5.0354867291526E-08
(PID.TID 0000.0001) // =======================================================
(PID.TID 0000.0001) // End MONITOR dynamic field statistics
(PID.TID 0000.0001) // =======================================================
(PID.TID 0000.0001) // =======================================================
(PID.TID 0000.0001) // Begin MONITOR SEAICE statistics
(PID.TID 0000.0001) // =======================================================
(PID.TID 0000.0001) %MON seaice_tsnumber              =                  1136
(PID.TID 0000.0001) %MON seaice_time_sec              =   1.0224000000000E+06
(PID.TID 0000.0001) %MON seaice_uice_max              =   4.0000000000000E-01
(PID.TID 0000.0001) %MON seaice_uice_min              =  -4.0000000000000E-01
(PID.TID 0000.0001) %MON seaice_uice_mean             =  -8.3054598624025E-03
(PID.TID 0000.0001) %MON seaice_uice_sd               =   1.9802383574176E-01
(PID.TID 0000.0001) %MON seaice_uice_del2             =   2.2931571122150E-04
(PID.TID 0000.0001) %MON seaice_vice_max              =   4.0000000000000E-01
(PID.TID 0000.0001) %MON seaice_vice_min              =  -4.0000000000000E-01
(PID.TID 0000.0001) %MON seaice_vice_mean             =  -2.1960776359499E-02
(PID.TID 0000.0001) %MON seaice_vice_sd               =   2.1302038025672E-01
(PID.TID 0000.0001) %MON seaice_vice_del2             =   2.3932563818061E-04
(PID.TID 0000.0001) %MON seaice_area_max              =   9.9999999813735E-01
(PID.TID 0000.0001) %MON seaice_area_min              =   0.0000000000000E+00
(PID.TID 0000.0001) %MON seaice_area_mean             =   6.4553726513132E-02
(PID.TID 0000.0001) %MON seaice_area_sd               =   2.2754144283882E-01
(PID.TID 0000.0001) %MON seaice_area_del2             =   3.7195565422168E-04
(PID.TID 0000.0001) %MON seaice_heff_max              =   2.4891912268708E+01
(PID.TID 0000.0001) %MON seaice_heff_min              =   0.0000000000000E+00
(PID.TID 0000.0001) %MON seaice_heff_mean             =   2.1139264002867E-01
(PID.TID 0000.0001) %MON seaice_heff_sd               =   1.0654734251103E+00
(PID.TID 0000.0001) %MON seaice_heff_del2             =   3.8117469822015E-03
(PID.TID 0000.0001) %MON seaice_hsnow_max             =   8.2218055958219E+00
(PID.TID 0000.0001) %MON seaice_hsnow_min             =   0.0000000000000E+00
(PID.TID 0000.0001) %MON seaice_hsnow_mean            =   2.3862505632998E-02
(PID.TID 0000.0001) %MON seaice_hsnow_sd              =   1.5573397431545E-01
(PID.TID 0000.0001) %MON seaice_hsnow_del2            =   1.2335798214889E-03
(PID.TID 0000.0001) // =======================================================
(PID.TID 0000.0001) // End MONITOR SEAICE statistics
(PID.TID 0000.0001) // =======================================================
 Computing Diagnostic #     86  oceQnet      Counter:       4   Parms: SM      U1      
 Computing Diagnostic #     87  oceQsw       Counter:       4   Parms: SM      U1      
 Computing Diagnostic #     84  oceFWflx     Counter:       4   Parms: SM      U1      
 Computing Diagnostic #     85  oceSflux     Counter:       4   Parms: SM      U1      
 Computing Diagnostic #     80  oceTAUX      Counter:       4   Parms: UU      U1      
           Vector  Mate for  oceTAUX      Diagnostic #     81  oceTAUY  exists 
 Computing Diagnostic #     81  oceTAUY      Counter:       4   Parms: VV      U1      
           Vector  Mate for  oceTAUY      Diagnostic #     80  oceTAUX  exists 
 Computing Diagnostic #     26  THETA        Counter:       4   Parms: SMR     MR      
 Computing Diagnostic #     27  SALT         Counter:       4   Parms: SMR     MR      
 Computing Diagnostic #     30  UVEL         Counter:       4   Parms: UUR     MR      
           Vector  Mate for  UVEL         Diagnostic #     31  VVEL     exists 
 Computing Diagnostic #     31  VVEL         Counter:       4   Parms: VVR     MR      
           Vector  Mate for  VVEL         Diagnostic #     30  UVEL     exists 
 Computing Diagnostic #    214  SIarea       Counter:       4   Parms: SM      M1      
 Computing Diagnostic #    217  SIheff       Counter:       4   Parms: SM      M1      
 Computing Diagnostic #    219  SIhsnow      Counter:       4   Parms: SM      M1      
 Computing Diagnostic #     83  sIceLoad     Counter:       4   Parms: SM      U1      
 Computing Diagnostic #    223  SIuice       Counter:       4   Parms: UU      M1      
           Vector  Mate for  SIuice       Diagnostic #    224  SIvice   exists 
 Computing Diagnostic #    224  SIvice       Counter:       4   Parms: VV      M1      
           Vector  Mate for  SIvice       Diagnostic #    223  SIuice   exists 
 Computing Diagnostic #    225  SItaux       Counter:       4   Parms: UU      U1      
           Vector  Mate for  SItaux       Diagnostic #    226  SItauy   exists 
 Computing Diagnostic #    226  SItauy       Counter:       4   Parms: VV      U1      
           Vector  Mate for  SItauy       Diagnostic #    225  SItaux   exists 
 Computing Diagnostic #    285  SIareaN      Counter:       4   Parms: SM      MX      
 Computing Diagnostic #    284  SIheffN      Counter:       4   Parms: SM      MX      
 Computing Diagnostic #    286  SIhsnowN     Counter:       4   Parms: SM      MX      
 Compute Stats, Diag. #    214  SIarea    vol(   0 ): 3.580E+14  Parms: SM      M1      
 Compute Stats, Diag. #    217  SIheff    vol(   0 ): 3.580E+14  Parms: SM      M1      
 Compute Stats, Diag. #    219  SIhsnow   vol(   0 ): 3.580E+14  Parms: SM      M1      
 Compute Stats, Diag. #     83  sIceLoad  vol(   0 ): 3.580E+14  Parms: SM      U1      
 Compute Stats, Diag. #    223  SIuice    vol(   0 ): 3.513E+14  Parms: UU      M1      
 Compute Stats, Diag. #    224  SIvice    vol(   0 ): 3.508E+14  Parms: VV      M1      
 Compute Stats, Diag. #    225  SItaux    vol(   0 ): 3.513E+14  Parms: UU      U1      
 Compute Stats, Diag. #    226  SItauy    vol(   0 ): 3.508E+14  Parms: VV      U1      
 cg2d: Sum(rhs),rhsMax =  -4.85284683624394E+01  2.89868639979168E-01
 Compute Stats, Diag. #    214  SIarea    vol(   0 ): 3.580E+14  Parms: SM      M1      
 Compute Stats, Diag. #    217  SIheff    vol(   0 ): 3.580E+14  Parms: SM      M1      
 Compute Stats, Diag. #    219  SIhsnow   vol(   0 ): 3.580E+14  Parms: SM      M1      
 Compute Stats, Diag. #     83  sIceLoad  vol(   0 ): 3.580E+14  Parms: SM      U1      
 Compute Stats, Diag. #    223  SIuice    vol(   0 ): 3.513E+14  Parms: UU      M1      
 Compute Stats, Diag. #    224  SIvice    vol(   0 ): 3.508E+14  Parms: VV      M1      
 Compute Stats, Diag. #    225  SItaux    vol(   0 ): 3.513E+14  Parms: UU      U1      
 Compute Stats, Diag. #    226  SItauy    vol(   0 ): 3.508E+14  Parms: VV      U1      
 cg2d: Sum(rhs),rhsMax =  -4.86579980382087E+01  2.90004880537850E-01
 Compute Stats, Diag. #    214  SIarea    vol(   0 ): 3.580E+14  Parms: SM      M1      
 Compute Stats, Diag. #    217  SIheff    vol(   0 ): 3.580E+14  Parms: SM      M1      
 Compute Stats, Diag. #    219  SIhsnow   vol(   0 ): 3.580E+14  Parms: SM      M1      
 Compute Stats, Diag. #     83  sIceLoad  vol(   0 ): 3.580E+14  Parms: SM      U1      
 Compute Stats, Diag. #    223  SIuice    vol(   0 ): 3.513E+14  Parms: UU      M1      
 Compute Stats, Diag. #    224  SIvice    vol(   0 ): 3.508E+14  Parms: VV      M1      
 Compute Stats, Diag. #    225  SItaux    vol(   0 ): 3.513E+14  Parms: UU      U1      
 Compute Stats, Diag. #    226  SItauy    vol(   0 ): 3.508E+14  Parms: VV      U1      
 cg2d: Sum(rhs),rhsMax =  -4.87922608943036E+01  2.90145501924315E-01
 Compute Stats, Diag. #    214  SIarea    vol(   0 ): 3.580E+14  Parms: SM      M1      
 Compute Stats, Diag. #    217  SIheff    vol(   0 ): 3.580E+14  Parms: SM      M1      
 Compute Stats, Diag. #    219  SIhsnow   vol(   0 ): 3.580E+14  Parms: SM      M1      
 Compute Stats, Diag. #     83  sIceLoad  vol(   0 ): 3.580E+14  Parms: SM      U1      
 Compute Stats, Diag. #    223  SIuice    vol(   0 ): 3.513E+14  Parms: UU      M1      
 Compute Stats, Diag. #    224  SIvice    vol(   0 ): 3.508E+14  Parms: VV      M1      
 Compute Stats, Diag. #    225  SItaux    vol(   0 ): 3.513E+14  Parms: UU      U1      
 Compute Stats, Diag. #    226  SItauy    vol(   0 ): 3.508E+14  Parms: VV      U1      
 cg2d: Sum(rhs),rhsMax =  -4.89217205939518E+01  2.90289005238543E-01
 Computing Diagnostic #     86  oceQnet      Counter:       4   Parms: SM      U1      
 Computing Diagnostic #     87  oceQsw       Counter:       4   Parms: SM      U1      
 Computing Diagnostic #     84  oceFWflx     Counter:       4   Parms: SM      U1      
 Computing Diagnostic #     85  oceSflux     Counter:       4   Parms: SM      U1      
 Computing Diagnostic #     80  oceTAUX      Counter:       4   Parms: UU      U1      
           Vector  Mate for  oceTAUX      Diagnostic #     81  oceTAUY  exists 
 Computing Diagnostic #     81  oceTAUY      Counter:       4   Parms: VV      U1      
           Vector  Mate for  oceTAUY      Diagnostic #     80  oceTAUX  exists 
 Computing Diagnostic #     26  THETA        Counter:       4   Parms: SMR     MR      
 Computing Diagnostic #     27  SALT         Counter:       4   Parms: SMR     MR      
 Computing Diagnostic #     30  UVEL         Counter:       4   Parms: UUR     MR      
           Vector  Mate for  UVEL         Diagnostic #     31  VVEL     exists 
 Computing Diagnostic #     31  VVEL         Counter:       4   Parms: VVR     MR      
           Vector  Mate for  VVEL         Diagnostic #     30  UVEL     exists 
 Computing Diagnostic #    214  SIarea       Counter:       4   Parms: SM      M1      
 Computing Diagnostic #    217  SIheff       Counter:       4   Parms: SM      M1      
 Computing Diagnostic #    219  SIhsnow      Counter:       4   Parms: SM      M1      
 Computing Diagnostic #     83  sIceLoad     Counter:       4   Parms: SM      U1      
 Computing Diagnostic #    223  SIuice       Counter:       4   Parms: UU      M1      
           Vector  Mate for  SIuice       Diagnostic #    224  SIvice   exists 
 Computing Diagnostic #    224  SIvice       Counter:       4   Parms: VV      M1      
           Vector  Mate for  SIvice       Diagnostic #    223  SIuice   exists 
 Computing Diagnostic #    225  SItaux       Counter:       4   Parms: UU      U1      
           Vector  Mate for  SItaux       Diagnostic #    226  SItauy   exists 
 Computing Diagnostic #    226  SItauy       Counter:       4   Parms: VV      U1      
           Vector  Mate for  SItauy       Diagnostic #    225  SItaux   exists 
 Computing Diagnostic #    285  SIareaN      Counter:       4   Parms: SM      MX      
 Computing Diagnostic #    284  SIheffN      Counter:       4   Parms: SM      MX      
 Computing Diagnostic #    286  SIhsnowN     Counter:       4   Parms: SM      MX      
 Compute Stats, Diag. #    214  SIarea    vol(   0 ): 3.580E+14  Parms: SM      M1      
 Compute Stats, Diag. #    217  SIheff    vol(   0 ): 3.580E+14  Parms: SM      M1      
 Compute Stats, Diag. #    219  SIhsnow   vol(   0 ): 3.580E+14  Parms: SM      M1      
 Compute Stats, Diag. #     83  sIceLoad  vol(   0 ): 3.580E+14  Parms: SM      U1      
 Compute Stats, Diag. #    223  SIuice    vol(   0 ): 3.513E+14  Parms: UU      M1      
 Compute Stats, Diag. #    224  SIvice    vol(   0 ): 3.508E+14  Parms: VV      M1      
 Compute Stats, Diag. #    225  SItaux    vol(   0 ): 3.513E+14  Parms: UU      U1      
 Compute Stats, Diag. #    226  SItauy    vol(   0 ): 3.508E+14  Parms: VV      U1      
 cg2d: Sum(rhs),rhsMax =  -4.90620121953055E+01  2.90434770518420E-01
 Compute Stats, Diag. #    214  SIarea    vol(   0 ): 3.580E+14  Parms: SM      M1      
 Compute Stats, Diag. #    217  SIheff    vol(   0 ): 3.580E+14  Parms: SM      M1      
 Compute Stats, Diag. #    219  SIhsnow   vol(   0 ): 3.580E+14  Parms: SM      M1      
 Compute Stats, Diag. #     83  sIceLoad  vol(   0 ): 3.580E+14  Parms: SM      U1      
 Compute Stats, Diag. #    223  SIuice    vol(   0 ): 3.513E+14  Parms: UU      M1      
 Compute Stats, Diag. #    224  SIvice    vol(   0 ): 3.508E+14  Parms: VV      M1      
 Compute Stats, Diag. #    225  SItaux    vol(   0 ): 3.513E+14  Parms: UU      U1      
 Compute Stats, Diag. #    226  SItauy    vol(   0 ): 3.508E+14  Parms: VV      U1      
 cg2d: Sum(rhs),rhsMax =  -4.92014417250110E+01  2.90582920570625E-01
 Compute Stats, Diag. #    214  SIarea    vol(   0 ): 3.580E+14  Parms: SM      M1      
 Compute Stats, Diag. #    217  SIheff    vol(   0 ): 3.580E+14  Parms: SM      M1      
 Compute Stats, Diag. #    219  SIhsnow   vol(   0 ): 3.580E+14  Parms: SM      M1      
 Compute Stats, Diag. #     83  sIceLoad  vol(   0 ): 3.580E+14  Parms: SM      U1      
 Compute Stats, Diag. #    223  SIuice    vol(   0 ): 3.513E+14  Parms: UU      M1      
 Compute Stats, Diag. #    224  SIvice    vol(   0 ): 3.508E+14  Parms: VV      M1      
 Compute Stats, Diag. #    225  SItaux    vol(   0 ): 3.513E+14  Parms: UU      U1      
 Compute Stats, Diag. #    226  SItauy    vol(   0 ): 3.508E+14  Parms: VV      U1      
 cg2d: Sum(rhs),rhsMax =  -4.93402736411132E+01  2.90732639049277E-01
 Compute Stats, Diag. #    214  SIarea    vol(   0 ): 3.580E+14  Parms: SM      M1      
 Compute Stats, Diag. #    217  SIheff    vol(   0 ): 3.580E+14  Parms: SM      M1      
 Compute Stats, Diag. #    219  SIhsnow   vol(   0 ): 3.580E+14  Parms: SM      M1      
 Compute Stats, Diag. #     83  sIceLoad  vol(   0 ): 3.580E+14  Parms: SM      U1      
 Compute Stats, Diag. #    223  SIuice    vol(   0 ): 3.513E+14  Parms: UU      M1      
 Compute Stats, Diag. #    224  SIvice    vol(   0 ): 3.508E+14  Parms: VV      M1      
 Compute Stats, Diag. #    225  SItaux    vol(   0 ): 3.513E+14  Parms: UU      U1      
 Compute Stats, Diag. #    226  SItauy    vol(   0 ): 3.508E+14  Parms: VV      U1      
 cg2d: Sum(rhs),rhsMax =  -4.94801819078443E+01  2.90882811842816E-01
(PID.TID 0000.0001)      cg2d_init_res =   4.00589227223268E-02
(PID.TID 0000.0001)      cg2d_iters(min,last) =      -1      23
(PID.TID 0000.0001)      cg2d_last_res =   2.49467341297967E-05
(PID.TID 0000.0001) // =======================================================
(PID.TID 0000.0001) // Begin MONITOR dynamic field statistics
(PID.TID 0000.0001) // =======================================================
(PID.TID 0000.0001) %MON time_tsnumber                =                  1144
(PID.TID 0000.0001) %MON time_secondsf                =   1.0296000000000E+06
(PID.TID 0000.0001) %MON dynstat_eta_max              =   1.0122448115479E+00
(PID.TID 0000.0001) %MON dynstat_eta_min              =  -1.8232873190333E+00
(PID.TID 0000.0001) %MON dynstat_eta_mean             =   1.5652161829607E-03
(PID.TID 0000.0001) %MON dynstat_eta_sd               =   6.2445239165552E-01
(PID.TID 0000.0001) %MON dynstat_eta_del2             =   5.2055423099014E-05
(PID.TID 0000.0001) %MON dynstat_uvel_max             =   6.6444483384296E-01
(PID.TID 0000.0001) %MON dynstat_uvel_min             =  -9.0724618471520E-01
(PID.TID 0000.0001) %MON dynstat_uvel_mean            =   1.3467489217467E-03
(PID.TID 0000.0001) %MON dynstat_uvel_sd              =   1.7944649146410E-02
(PID.TID 0000.0001) %MON dynstat_uvel_del2            =   6.9371338895223E-06
(PID.TID 0000.0001) %MON dynstat_vvel_max             =   7.0562332383467E-01
(PID.TID 0000.0001) %MON dynstat_vvel_min             =  -1.0487622586110E+00
(PID.TID 0000.0001) %MON dynstat_vvel_mean            =   1.0611419319778E-03
(PID.TID 0000.0001) %MON dynstat_vvel_sd              =   1.9469994932443E-02
(PID.TID 0000.0001) %MON dynstat_vvel_del2            =   7.2308114618708E-06
(PID.TID 0000.0001) %MON dynstat_wvel_max             =   3.0808842583420E-04
(PID.TID 0000.0001) %MON dynstat_wvel_min             =  -7.8017665944742E-04
(PID.TID 0000.0001) %MON dynstat_wvel_mean            =   1.4438782660817E-09
(PID.TID 0000.0001) %MON dynstat_wvel_sd              =   1.5639866975306E-05
(PID.TID 0000.0001) %MON dynstat_wvel_del2            =   1.4061218753320E-08
(PID.TID 0000.0001) %MON dynstat_theta_max            =   3.1560360701968E+01
(PID.TID 0000.0001) %MON dynstat_theta_min            =  -2.0395852190038E+00
(PID.TID 0000.0001) %MON dynstat_theta_mean           =   3.5900684358474E+00
(PID.TID 0000.0001) %MON dynstat_theta_sd             =   4.4367275509049E+00
(PID.TID 0000.0001) %MON dynstat_theta_del2           =   8.9718307662880E-05
(PID.TID 0000.0001) %MON dynstat_salt_max             =   4.0711549385772E+01
(PID.TID 0000.0001) %MON dynstat_salt_min             =   6.1566818832937E+00
(PID.TID 0000.0001) %MON dynstat_salt_mean            =   3.4725557797196E+01
(PID.TID 0000.0001) %MON dynstat_salt_sd              =   3.7713171208806E-01
(PID.TID 0000.0001) %MON dynstat_salt_del2            =   3.5392356386227E-05
(PID.TID 0000.0001) %MON dynstat_sst_max              =   3.1560343377509E+01
(PID.TID 0000.0001) %MON dynstat_sst_min              =  -1.8079744632271E+00
(PID.TID 0000.0001) %MON dynstat_sst_mean             =   1.8444516075294E+01
(PID.TID 0000.0001) %MON dynstat_sst_sd               =   1.0301111807759E+01
(PID.TID 0000.0001) %MON dynstat_sst_del2             =   7.8782947941197E-04
(PID.TID 0000.0001) %MON dynstat_sss_max              =   3.9097863354718E+01
(PID.TID 0000.0001) %MON dynstat_sss_min              =   6.1566818832937E+00
(PID.TID 0000.0001) %MON dynstat_sss_mean             =   3.4701418687153E+01
(PID.TID 0000.0001) %MON dynstat_sss_sd               =   1.1850745868409E+00
(PID.TID 0000.0001) %MON dynstat_sss_del2             =   1.0546114095411E-03
(PID.TID 0000.0001) %MON forcing_qnet_max             =   1.2718060302734E+03
(PID.TID 0000.0001) %MON forcing_qnet_min             =  -9.5181182861328E+02
(PID.TID 0000.0001) %MON forcing_qnet_mean            =  -9.7714513988360E+00
(PID.TID 0000.0001) %MON forcing_qnet_sd              =   2.0092673898887E+02
(PID.TID 0000.0001) %MON forcing_qnet_del2            =   3.1867482875188E-01
(PID.TID 0000.0001) %MON forcing_qsw_max              =   0.0000000000000E+00
(PID.TID 0000.0001) %MON forcing_qsw_min              =  -1.0912357304825E+02
(PID.TID 0000.0001) %MON forcing_qsw_mean             =  -1.9855716755531E+01
(PID.TID 0000.0001) %MON forcing_qsw_sd               =   2.8771654767958E+01
(PID.TID 0000.0001) %MON forcing_qsw_del2             =   1.9900877953882E-02
(PID.TID 0000.0001) %MON forcing_empmr_max            =   1.1584472376853E-03
(PID.TID 0000.0001) %MON forcing_empmr_min            =  -8.5659205913544E-02
(PID.TID 0000.0001) %MON forcing_empmr_mean           =  -5.0601021422267E-06
(PID.TID 0000.0001) %MON forcing_empmr_sd             =   3.7311776192665E-04
(PID.TID 0000.0001) %MON forcing_empmr_del2           =   3.9123827762310E-06
(PID.TID 0000.0001) %MON forcing_fu_max               =   7.0022770762444E-01
(PID.TID 0000.0001) %MON forcing_fu_min               =  -8.9403289858471E-01
(PID.TID 0000.0001) %MON forcing_fu_mean              =   3.2433467283840E-03
(PID.TID 0000.0001) %MON forcing_fu_sd                =   1.0638079495869E-01
(PID.TID 0000.0001) %MON forcing_fu_del2              =   1.3583388086121E-04
(PID.TID 0000.0001) %MON forcing_fv_max               =   5.1469027996063E-01
(PID.TID 0000.0001) %MON forcing_fv_min               =  -1.2150855064392E+00
(PID.TID 0000.0001) %MON forcing_fv_mean              =  -1.1416272374430E-02
(PID.TID 0000.0001) %MON forcing_fv_sd                =   1.0731185730519E-01
(PID.TID 0000.0001) %MON forcing_fv_del2              =   1.4859949961900E-04
(PID.TID 0000.0001) %MON trAdv_CFL_u_max              =   1.1832978084789E-02
(PID.TID 0000.0001) %MON trAdv_CFL_v_max              =   1.6035948565286E-02
(PID.TID 0000.0001) %MON trAdv_CFL_w_max              =   2.1855048099293E-02
(PID.TID 0000.0001) %MON advcfl_uvel_max              =   1.0148212226970E-02
(PID.TID 0000.0001) %MON advcfl_vvel_max              =   1.5060711227201E-02
(PID.TID 0000.0001) %MON advcfl_wvel_max              =   2.4001984861090E-02
(PID.TID 0000.0001) %MON advcfl_W_hf_max              =   2.5173877521816E-02
(PID.TID 0000.0001) %MON pe_b_mean                    =   5.1293164273604E-04
(PID.TID 0000.0001) %MON ke_max                       =   5.7438543983103E-01
(PID.TID 0000.0001) %MON ke_mean                      =   3.3948123563802E-04
(PID.TID 0000.0001) %MON ke_vol                       =   1.3349984357239E+18
(PID.TID 0000.0001) %MON vort_r_min                   =  -2.0186271606347E-05
(PID.TID 0000.0001) %MON vort_r_max                   =   2.3075559783101E-05
(PID.TID 0000.0001) %MON vort_a_mean                  =  -1.9727864647440E-05
(PID.TID 0000.0001) %MON vort_a_sd                    =   7.4542978761868E-05
(PID.TID 0000.0001) %MON vort_p_mean                  =  -2.1760524513259E-05
(PID.TID 0000.0001) %MON vort_p_sd                    =   9.7247152157881E-05
(PID.TID 0000.0001) %MON surfExpan_theta_mean         =   2.1730040246924E-07
(PID.TID 0000.0001) %MON surfExpan_salt_mean          =   6.1058110555961E-08
(PID.TID 0000.0001) // =======================================================
(PID.TID 0000.0001) // End MONITOR dynamic field statistics
(PID.TID 0000.0001) // =======================================================
(PID.TID 0000.0001) // =======================================================
(PID.TID 0000.0001) // Begin MONITOR SEAICE statistics
(PID.TID 0000.0001) // =======================================================
(PID.TID 0000.0001) %MON seaice_tsnumber              =                  1144
(PID.TID 0000.0001) %MON seaice_time_sec              =   1.0296000000000E+06
(PID.TID 0000.0001) %MON seaice_uice_max              =   4.0000000000000E-01
(PID.TID 0000.0001) %MON seaice_uice_min              =  -4.0000000000000E-01
(PID.TID 0000.0001) %MON seaice_uice_mean             =  -8.3054598624025E-03
(PID.TID 0000.0001) %MON seaice_uice_sd               =   1.9802383574176E-01
(PID.TID 0000.0001) %MON seaice_uice_del2             =   2.2931571122150E-04
(PID.TID 0000.0001) %MON seaice_vice_max              =   4.0000000000000E-01
(PID.TID 0000.0001) %MON seaice_vice_min              =  -4.0000000000000E-01
(PID.TID 0000.0001) %MON seaice_vice_mean             =  -2.1960776359499E-02
(PID.TID 0000.0001) %MON seaice_vice_sd               =   2.1302038025672E-01
(PID.TID 0000.0001) %MON seaice_vice_del2             =   2.3932563818061E-04
(PID.TID 0000.0001) %MON seaice_area_max              =   9.9999999813735E-01
(PID.TID 0000.0001) %MON seaice_area_min              =   0.0000000000000E+00
(PID.TID 0000.0001) %MON seaice_area_mean             =   6.4529527805412E-02
(PID.TID 0000.0001) %MON seaice_area_sd               =   2.2749765155277E-01
(PID.TID 0000.0001) %MON seaice_area_del2             =   3.7149861330467E-04
(PID.TID 0000.0001) %MON seaice_heff_max              =   2.4890517598134E+01
(PID.TID 0000.0001) %MON seaice_heff_min              =   0.0000000000000E+00
(PID.TID 0000.0001) %MON seaice_heff_mean             =   2.1137131301248E-01
(PID.TID 0000.0001) %MON seaice_heff_sd               =   1.0654564083941E+00
(PID.TID 0000.0001) %MON seaice_heff_del2             =   3.8112010041596E-03
(PID.TID 0000.0001) %MON seaice_hsnow_max             =   8.2213405777002E+00
(PID.TID 0000.0001) %MON seaice_hsnow_min             =   0.0000000000000E+00
(PID.TID 0000.0001) %MON seaice_hsnow_mean            =   2.3856299243396E-02
(PID.TID 0000.0001) %MON seaice_hsnow_sd              =   1.5572625238880E-01
(PID.TID 0000.0001) %MON seaice_hsnow_del2            =   1.2334542561004E-03
(PID.TID 0000.0001) // =======================================================
(PID.TID 0000.0001) // End MONITOR SEAICE statistics
(PID.TID 0000.0001) // =======================================================
 Computing Diagnostic #     86  oceQnet      Counter:       4   Parms: SM      U1      
 Computing Diagnostic #     87  oceQsw       Counter:       4   Parms: SM      U1      
 Computing Diagnostic #     84  oceFWflx     Counter:       4   Parms: SM      U1      
 Computing Diagnostic #     85  oceSflux     Counter:       4   Parms: SM      U1      
 Computing Diagnostic #     80  oceTAUX      Counter:       4   Parms: UU      U1      
           Vector  Mate for  oceTAUX      Diagnostic #     81  oceTAUY  exists 
 Computing Diagnostic #     81  oceTAUY      Counter:       4   Parms: VV      U1      
           Vector  Mate for  oceTAUY      Diagnostic #     80  oceTAUX  exists 
 Computing Diagnostic #     26  THETA        Counter:       4   Parms: SMR     MR      
 Computing Diagnostic #     27  SALT         Counter:       4   Parms: SMR     MR      
 Computing Diagnostic #     30  UVEL         Counter:       4   Parms: UUR     MR      
           Vector  Mate for  UVEL         Diagnostic #     31  VVEL     exists 
 Computing Diagnostic #     31  VVEL         Counter:       4   Parms: VVR     MR      
           Vector  Mate for  VVEL         Diagnostic #     30  UVEL     exists 
 Computing Diagnostic #    214  SIarea       Counter:       4   Parms: SM      M1      
 Computing Diagnostic #    217  SIheff       Counter:       4   Parms: SM      M1      
 Computing Diagnostic #    219  SIhsnow      Counter:       4   Parms: SM      M1      
 Computing Diagnostic #     83  sIceLoad     Counter:       4   Parms: SM      U1      
 Computing Diagnostic #    223  SIuice       Counter:       4   Parms: UU      M1      
           Vector  Mate for  SIuice       Diagnostic #    224  SIvice   exists 
 Computing Diagnostic #    224  SIvice       Counter:       4   Parms: VV      M1      
           Vector  Mate for  SIvice       Diagnostic #    223  SIuice   exists 
 Computing Diagnostic #    225  SItaux       Counter:       4   Parms: UU      U1      
           Vector  Mate for  SItaux       Diagnostic #    226  SItauy   exists 
 Computing Diagnostic #    226  SItauy       Counter:       4   Parms: VV      U1      
           Vector  Mate for  SItauy       Diagnostic #    225  SItaux   exists 
 Computing Diagnostic #    285  SIareaN      Counter:       4   Parms: SM      MX      
 Computing Diagnostic #    284  SIheffN      Counter:       4   Parms: SM      MX      
 Computing Diagnostic #    286  SIhsnowN     Counter:       4   Parms: SM      MX      
 Compute Stats, Diag. #    214  SIarea    vol(   0 ): 3.580E+14  Parms: SM      M1      
 Compute Stats, Diag. #    217  SIheff    vol(   0 ): 3.580E+14  Parms: SM      M1      
 Compute Stats, Diag. #    219  SIhsnow   vol(   0 ): 3.580E+14  Parms: SM      M1      
 Compute Stats, Diag. #     83  sIceLoad  vol(   0 ): 3.580E+14  Parms: SM      U1      
 Compute Stats, Diag. #    223  SIuice    vol(   0 ): 3.513E+14  Parms: UU      M1      
 Compute Stats, Diag. #    224  SIvice    vol(   0 ): 3.508E+14  Parms: VV      M1      
 Compute Stats, Diag. #    225  SItaux    vol(   0 ): 3.513E+14  Parms: UU      U1      
 Compute Stats, Diag. #    226  SItauy    vol(   0 ): 3.508E+14  Parms: VV      U1      
 cg2d: Sum(rhs),rhsMax =  -4.96250258013194E+01  2.91031570866067E-01
 Compute Stats, Diag. #    214  SIarea    vol(   0 ): 3.580E+14  Parms: SM      M1      
 Compute Stats, Diag. #    217  SIheff    vol(   0 ): 3.580E+14  Parms: SM      M1      
 Compute Stats, Diag. #    219  SIhsnow   vol(   0 ): 3.580E+14  Parms: SM      M1      
 Compute Stats, Diag. #     83  sIceLoad  vol(   0 ): 3.580E+14  Parms: SM      U1      
 Compute Stats, Diag. #    223  SIuice    vol(   0 ): 3.513E+14  Parms: UU      M1      
 Compute Stats, Diag. #    224  SIvice    vol(   0 ): 3.508E+14  Parms: VV      M1      
 Compute Stats, Diag. #    225  SItaux    vol(   0 ): 3.513E+14  Parms: UU      U1      
 Compute Stats, Diag. #    226  SItauy    vol(   0 ): 3.508E+14  Parms: VV      U1      
 cg2d: Sum(rhs),rhsMax =  -4.97710045644032E+01  2.91179186339097E-01
 Compute Stats, Diag. #    214  SIarea    vol(   0 ): 3.580E+14  Parms: SM      M1      
 Compute Stats, Diag. #    217  SIheff    vol(   0 ): 3.580E+14  Parms: SM      M1      
 Compute Stats, Diag. #    219  SIhsnow   vol(   0 ): 3.580E+14  Parms: SM      M1      
 Compute Stats, Diag. #     83  sIceLoad  vol(   0 ): 3.580E+14  Parms: SM      U1      
 Compute Stats, Diag. #    223  SIuice    vol(   0 ): 3.513E+14  Parms: UU      M1      
 Compute Stats, Diag. #    224  SIvice    vol(   0 ): 3.508E+14  Parms: VV      M1      
 Compute Stats, Diag. #    225  SItaux    vol(   0 ): 3.513E+14  Parms: UU      U1      
 Compute Stats, Diag. #    226  SItauy    vol(   0 ): 3.508E+14  Parms: VV      U1      
 cg2d: Sum(rhs),rhsMax =  -4.99052566518055E+01  2.91324914496811E-01
 Compute Stats, Diag. #    214  SIarea    vol(   0 ): 3.580E+14  Parms: SM      M1      
 Compute Stats, Diag. #    217  SIheff    vol(   0 ): 3.580E+14  Parms: SM      M1      
 Compute Stats, Diag. #    219  SIhsnow   vol(   0 ): 3.580E+14  Parms: SM      M1      
 Compute Stats, Diag. #     83  sIceLoad  vol(   0 ): 3.580E+14  Parms: SM      U1      
 Compute Stats, Diag. #    223  SIuice    vol(   0 ): 3.513E+14  Parms: UU      M1      
 Compute Stats, Diag. #    224  SIvice    vol(   0 ): 3.508E+14  Parms: VV      M1      
 Compute Stats, Diag. #    225  SItaux    vol(   0 ): 3.513E+14  Parms: UU      U1      
 Compute Stats, Diag. #    226  SItauy    vol(   0 ): 3.508E+14  Parms: VV      U1      
 cg2d: Sum(rhs),rhsMax =  -5.00393513693226E+01  2.91465448252051E-01
 Computing Diagnostic #     86  oceQnet      Counter:       4   Parms: SM      U1      
 Computing Diagnostic #     87  oceQsw       Counter:       4   Parms: SM      U1      
 Computing Diagnostic #     84  oceFWflx     Counter:       4   Parms: SM      U1      
 Computing Diagnostic #     85  oceSflux     Counter:       4   Parms: SM      U1      
 Computing Diagnostic #     80  oceTAUX      Counter:       4   Parms: UU      U1      
           Vector  Mate for  oceTAUX      Diagnostic #     81  oceTAUY  exists 
 Computing Diagnostic #     81  oceTAUY      Counter:       4   Parms: VV      U1      
           Vector  Mate for  oceTAUY      Diagnostic #     80  oceTAUX  exists 
 Computing Diagnostic #     26  THETA        Counter:       4   Parms: SMR     MR      
 Computing Diagnostic #     27  SALT         Counter:       4   Parms: SMR     MR      
 Computing Diagnostic #     30  UVEL         Counter:       4   Parms: UUR     MR      
           Vector  Mate for  UVEL         Diagnostic #     31  VVEL     exists 
 Computing Diagnostic #     31  VVEL         Counter:       4   Parms: VVR     MR      
           Vector  Mate for  VVEL         Diagnostic #     30  UVEL     exists 
 Computing Diagnostic #    214  SIarea       Counter:       4   Parms: SM      M1      
 Computing Diagnostic #    217  SIheff       Counter:       4   Parms: SM      M1      
 Computing Diagnostic #    219  SIhsnow      Counter:       4   Parms: SM      M1      
 Computing Diagnostic #     83  sIceLoad     Counter:       4   Parms: SM      U1      
 Computing Diagnostic #    223  SIuice       Counter:       4   Parms: UU      M1      
           Vector  Mate for  SIuice       Diagnostic #    224  SIvice   exists 
 Computing Diagnostic #    224  SIvice       Counter:       4   Parms: VV      M1      
           Vector  Mate for  SIvice       Diagnostic #    223  SIuice   exists 
 Computing Diagnostic #    225  SItaux       Counter:       4   Parms: UU      U1      
           Vector  Mate for  SItaux       Diagnostic #    226  SItauy   exists 
 Computing Diagnostic #    226  SItauy       Counter:       4   Parms: VV      U1      
           Vector  Mate for  SItauy       Diagnostic #    225  SItaux   exists 
 Computing Diagnostic #    285  SIareaN      Counter:       4   Parms: SM      MX      
 Computing Diagnostic #    284  SIheffN      Counter:       4   Parms: SM      MX      
 Computing Diagnostic #    286  SIhsnowN     Counter:       4   Parms: SM      MX      
 Compute Stats, Diag. #    214  SIarea    vol(   0 ): 3.580E+14  Parms: SM      M1      
 Compute Stats, Diag. #    217  SIheff    vol(   0 ): 3.580E+14  Parms: SM      M1      
 Compute Stats, Diag. #    219  SIhsnow   vol(   0 ): 3.580E+14  Parms: SM      M1      
 Compute Stats, Diag. #     83  sIceLoad  vol(   0 ): 3.580E+14  Parms: SM      U1      
 Compute Stats, Diag. #    223  SIuice    vol(   0 ): 3.513E+14  Parms: UU      M1      
 Compute Stats, Diag. #    224  SIvice    vol(   0 ): 3.508E+14  Parms: VV      M1      
 Compute Stats, Diag. #    225  SItaux    vol(   0 ): 3.513E+14  Parms: UU      U1      
 Compute Stats, Diag. #    226  SItauy    vol(   0 ): 3.508E+14  Parms: VV      U1      
 cg2d: Sum(rhs),rhsMax =  -5.01606127143683E+01  2.91597296256926E-01
 Compute Stats, Diag. #    214  SIarea    vol(   0 ): 3.580E+14  Parms: SM      M1      
 Compute Stats, Diag. #    217  SIheff    vol(   0 ): 3.580E+14  Parms: SM      M1      
 Compute Stats, Diag. #    219  SIhsnow   vol(   0 ): 3.580E+14  Parms: SM      M1      
 Compute Stats, Diag. #     83  sIceLoad  vol(   0 ): 3.580E+14  Parms: SM      U1      
 Compute Stats, Diag. #    223  SIuice    vol(   0 ): 3.513E+14  Parms: UU      M1      
 Compute Stats, Diag. #    224  SIvice    vol(   0 ): 3.508E+14  Parms: VV      M1      
 Compute Stats, Diag. #    225  SItaux    vol(   0 ): 3.513E+14  Parms: UU      U1      
 Compute Stats, Diag. #    226  SItauy    vol(   0 ): 3.508E+14  Parms: VV      U1      
 cg2d: Sum(rhs),rhsMax =  -5.02813235667945E+01  2.91723055691246E-01
 Compute Stats, Diag. #    214  SIarea    vol(   0 ): 3.580E+14  Parms: SM      M1      
 Compute Stats, Diag. #    217  SIheff    vol(   0 ): 3.580E+14  Parms: SM      M1      
 Compute Stats, Diag. #    219  SIhsnow   vol(   0 ): 3.580E+14  Parms: SM      M1      
 Compute Stats, Diag. #     83  sIceLoad  vol(   0 ): 3.580E+14  Parms: SM      U1      
 Compute Stats, Diag. #    223  SIuice    vol(   0 ): 3.513E+14  Parms: UU      M1      
 Compute Stats, Diag. #    224  SIvice    vol(   0 ): 3.508E+14  Parms: VV      M1      
 Compute Stats, Diag. #    225  SItaux    vol(   0 ): 3.513E+14  Parms: UU      U1      
 Compute Stats, Diag. #    226  SItauy    vol(   0 ): 3.508E+14  Parms: VV      U1      
 cg2d: Sum(rhs),rhsMax =  -5.03993499400095E+01  2.91843514709496E-01
 Compute Stats, Diag. #    214  SIarea    vol(   0 ): 3.580E+14  Parms: SM      M1      
 Compute Stats, Diag. #    217  SIheff    vol(   0 ): 3.580E+14  Parms: SM      M1      
 Compute Stats, Diag. #    219  SIhsnow   vol(   0 ): 3.580E+14  Parms: SM      M1      
 Compute Stats, Diag. #     83  sIceLoad  vol(   0 ): 3.580E+14  Parms: SM      U1      
 Compute Stats, Diag. #    223  SIuice    vol(   0 ): 3.513E+14  Parms: UU      M1      
 Compute Stats, Diag. #    224  SIvice    vol(   0 ): 3.508E+14  Parms: VV      M1      
 Compute Stats, Diag. #    225  SItaux    vol(   0 ): 3.513E+14  Parms: UU      U1      
 Compute Stats, Diag. #    226  SItauy    vol(   0 ): 3.508E+14  Parms: VV      U1      
 cg2d: Sum(rhs),rhsMax =  -5.05059019695246E+01  2.91991722629640E-01
(PID.TID 0000.0001)      cg2d_init_res =   3.83818884785122E-02
(PID.TID 0000.0001)      cg2d_iters(min,last) =      -1      23
(PID.TID 0000.0001)      cg2d_last_res =   2.10888853472273E-05
(PID.TID 0000.0001) // =======================================================
(PID.TID 0000.0001) // Begin MONITOR dynamic field statistics
(PID.TID 0000.0001) // =======================================================
(PID.TID 0000.0001) %MON time_tsnumber                =                  1152
(PID.TID 0000.0001) %MON time_secondsf                =   1.0368000000000E+06
(PID.TID 0000.0001) %MON dynstat_eta_max              =   1.0125295041544E+00
(PID.TID 0000.0001) %MON dynstat_eta_min              =  -1.8288269686107E+00
(PID.TID 0000.0001) %MON dynstat_eta_mean             =   1.5976629844441E-03
(PID.TID 0000.0001) %MON dynstat_eta_sd               =   6.2469344969133E-01
(PID.TID 0000.0001) %MON dynstat_eta_del2             =   5.1940030520347E-05
(PID.TID 0000.0001) %MON dynstat_uvel_max             =   6.6599639234296E-01
(PID.TID 0000.0001) %MON dynstat_uvel_min             =  -9.1050278176259E-01
(PID.TID 0000.0001) %MON dynstat_uvel_mean            =   1.3472515988904E-03
(PID.TID 0000.0001) %MON dynstat_uvel_sd              =   1.7968120049143E-02
(PID.TID 0000.0001) %MON dynstat_uvel_del2            =   6.9477538857732E-06
(PID.TID 0000.0001) %MON dynstat_vvel_max             =   6.6150491207149E-01
(PID.TID 0000.0001) %MON dynstat_vvel_min             =  -1.0531382286857E+00
(PID.TID 0000.0001) %MON dynstat_vvel_mean            =   1.0597819916853E-03
(PID.TID 0000.0001) %MON dynstat_vvel_sd              =   1.9484127954834E-02
(PID.TID 0000.0001) %MON dynstat_vvel_del2            =   7.2438591676390E-06
(PID.TID 0000.0001) %MON dynstat_wvel_max             =   3.1541336745901E-04
(PID.TID 0000.0001) %MON dynstat_wvel_min             =  -7.7854853837347E-04
(PID.TID 0000.0001) %MON dynstat_wvel_mean            =   2.5061546985832E-09
(PID.TID 0000.0001) %MON dynstat_wvel_sd              =   1.5841577808501E-05
(PID.TID 0000.0001) %MON dynstat_wvel_del2            =   1.4137807580260E-08
(PID.TID 0000.0001) %MON dynstat_theta_max            =   3.1537978733704E+01
(PID.TID 0000.0001) %MON dynstat_theta_min            =  -2.0395783917558E+00
(PID.TID 0000.0001) %MON dynstat_theta_mean           =   3.5900765688645E+00
(PID.TID 0000.0001) %MON dynstat_theta_sd             =   4.4367786194125E+00
(PID.TID 0000.0001) %MON dynstat_theta_del2           =   8.9663203097760E-05
(PID.TID 0000.0001) %MON dynstat_salt_max             =   4.0711549835925E+01
(PID.TID 0000.0001) %MON dynstat_salt_min             =   5.9684194418793E+00
(PID.TID 0000.0001) %MON dynstat_salt_mean            =   3.4725557493392E+01
(PID.TID 0000.0001) %MON dynstat_salt_sd              =   3.7713533546773E-01
(PID.TID 0000.0001) %MON dynstat_salt_del2            =   3.5493816713302E-05
(PID.TID 0000.0001) %MON dynstat_sst_max              =   3.1537957919654E+01
(PID.TID 0000.0001) %MON dynstat_sst_min              =  -1.8078220191254E+00
(PID.TID 0000.0001) %MON dynstat_sst_mean             =   1.8447365546460E+01
(PID.TID 0000.0001) %MON dynstat_sst_sd               =   1.0302764961242E+01
(PID.TID 0000.0001) %MON dynstat_sst_del2             =   7.8721245265336E-04
(PID.TID 0000.0001) %MON dynstat_sss_max              =   3.9097894029284E+01
(PID.TID 0000.0001) %MON dynstat_sss_min              =   5.9684194418793E+00
(PID.TID 0000.0001) %MON dynstat_sss_mean             =   3.4701455766482E+01
(PID.TID 0000.0001) %MON dynstat_sss_sd               =   1.1855027880577E+00
(PID.TID 0000.0001) %MON dynstat_sss_del2             =   1.0584402214062E-03
(PID.TID 0000.0001) %MON forcing_qnet_max             =   1.4861390380859E+03
(PID.TID 0000.0001) %MON forcing_qnet_min             =  -8.7864781770638E+02
(PID.TID 0000.0001) %MON forcing_qnet_mean            =  -2.3559978991188E+01
(PID.TID 0000.0001) %MON forcing_qnet_sd              =   2.1435355972192E+02
(PID.TID 0000.0001) %MON forcing_qnet_del2            =   3.3031198671927E-01
(PID.TID 0000.0001) %MON forcing_qsw_max              =   0.0000000000000E+00
(PID.TID 0000.0001) %MON forcing_qsw_min              =  -1.1018896119562E+02
(PID.TID 0000.0001) %MON forcing_qsw_mean             =  -2.1707658719008E+01
(PID.TID 0000.0001) %MON forcing_qsw_sd               =   3.0785397599437E+01
(PID.TID 0000.0001) %MON forcing_qsw_del2             =   1.8917177271644E-02
(PID.TID 0000.0001) %MON forcing_empmr_max            =   9.3085394473746E-04
(PID.TID 0000.0001) %MON forcing_empmr_min            =  -8.6407311260700E-02
(PID.TID 0000.0001) %MON forcing_empmr_mean           =  -3.8536976079052E-06
(PID.TID 0000.0001) %MON forcing_empmr_sd             =   3.6981697821086E-04
(PID.TID 0000.0001) %MON forcing_empmr_del2           =   3.8647319223679E-06
(PID.TID 0000.0001) %MON forcing_fu_max               =   7.1739599108696E-01
(PID.TID 0000.0001) %MON forcing_fu_min               =  -8.9863024359966E-01
(PID.TID 0000.0001) %MON forcing_fu_mean              =   3.6253135828183E-03
(PID.TID 0000.0001) %MON forcing_fu_sd                =   1.0691136599851E-01
(PID.TID 0000.0001) %MON forcing_fu_del2              =   1.3599564341398E-04
(PID.TID 0000.0001) %MON forcing_fv_max               =   5.1010078191757E-01
(PID.TID 0000.0001) %MON forcing_fv_min               =  -1.2015243172646E+00
(PID.TID 0000.0001) %MON forcing_fv_mean              =  -1.0914906326362E-02
(PID.TID 0000.0001) %MON forcing_fv_sd                =   1.0785132370369E-01
(PID.TID 0000.0001) %MON forcing_fv_del2              =   1.5106842731252E-04
(PID.TID 0000.0001) %MON trAdv_CFL_u_max              =   1.1928488296729E-02
(PID.TID 0000.0001) %MON trAdv_CFL_v_max              =   1.5091803040334E-02
(PID.TID 0000.0001) %MON trAdv_CFL_w_max              =   2.1785320528843E-02
(PID.TID 0000.0001) %MON advcfl_uvel_max              =   1.0242136840401E-02
(PID.TID 0000.0001) %MON advcfl_vvel_max              =   1.4119054911538E-02
(PID.TID 0000.0001) %MON advcfl_wvel_max              =   2.3935452828877E-02
(PID.TID 0000.0001) %MON advcfl_W_hf_max              =   2.5104158006714E-02
(PID.TID 0000.0001) %MON pe_b_mean                    =   5.1332786218572E-04
(PID.TID 0000.0001) %MON ke_max                       =   5.8026481044414E-01
(PID.TID 0000.0001) %MON ke_mean                      =   3.4015238105856E-04
(PID.TID 0000.0001) %MON ke_vol                       =   1.3349984477181E+18
(PID.TID 0000.0001) %MON vort_r_min                   =  -1.8738357688516E-05
(PID.TID 0000.0001) %MON vort_r_max                   =   2.1631204544727E-05
(PID.TID 0000.0001) %MON vort_a_mean                  =  -1.9727864647440E-05
(PID.TID 0000.0001) %MON vort_a_sd                    =   7.4542978896034E-05
(PID.TID 0000.0001) %MON vort_p_mean                  =  -2.1760524383620E-05
(PID.TID 0000.0001) %MON vort_p_sd                    =   9.7247208463929E-05
(PID.TID 0000.0001) %MON surfExpan_theta_mean         =   2.0607444431916E-07
(PID.TID 0000.0001) %MON surfExpan_salt_mean          =   6.1758202412445E-08
(PID.TID 0000.0001) // =======================================================
(PID.TID 0000.0001) // End MONITOR dynamic field statistics
(PID.TID 0000.0001) // =======================================================
(PID.TID 0000.0001) // =======================================================
(PID.TID 0000.0001) // Begin MONITOR SEAICE statistics
(PID.TID 0000.0001) // =======================================================
(PID.TID 0000.0001) %MON seaice_tsnumber              =                  1152
(PID.TID 0000.0001) %MON seaice_time_sec              =   1.0368000000000E+06
(PID.TID 0000.0001) %MON seaice_uice_max              =   4.0000000000000E-01
(PID.TID 0000.0001) %MON seaice_uice_min              =  -4.0000000000000E-01
(PID.TID 0000.0001) %MON seaice_uice_mean             =  -8.3054598624025E-03
(PID.TID 0000.0001) %MON seaice_uice_sd               =   1.9802383574176E-01
(PID.TID 0000.0001) %MON seaice_uice_del2             =   2.2931571122150E-04
(PID.TID 0000.0001) %MON seaice_vice_max              =   4.0000000000000E-01
(PID.TID 0000.0001) %MON seaice_vice_min              =  -4.0000000000000E-01
(PID.TID 0000.0001) %MON seaice_vice_mean             =  -2.1960776359499E-02
(PID.TID 0000.0001) %MON seaice_vice_sd               =   2.1302038025672E-01
(PID.TID 0000.0001) %MON seaice_vice_del2             =   2.3932563818061E-04
(PID.TID 0000.0001) %MON seaice_area_max              =   9.9999999813735E-01
(PID.TID 0000.0001) %MON seaice_area_min              =   0.0000000000000E+00
(PID.TID 0000.0001) %MON seaice_area_mean             =   6.4507417801318E-02
(PID.TID 0000.0001) %MON seaice_area_sd               =   2.2745641067171E-01
(PID.TID 0000.0001) %MON seaice_area_del2             =   3.7107627328007E-04
(PID.TID 0000.0001) %MON seaice_heff_max              =   2.4889136513928E+01
(PID.TID 0000.0001) %MON seaice_heff_min              =   0.0000000000000E+00
(PID.TID 0000.0001) %MON seaice_heff_mean             =   2.1135082189092E-01
(PID.TID 0000.0001) %MON seaice_heff_sd               =   1.0654398539079E+00
(PID.TID 0000.0001) %MON seaice_heff_del2             =   3.8106562240883E-03
(PID.TID 0000.0001) %MON seaice_hsnow_max             =   8.2208804152033E+00
(PID.TID 0000.0001) %MON seaice_hsnow_min             =   0.0000000000000E+00
(PID.TID 0000.0001) %MON seaice_hsnow_mean            =   2.3852960775002E-02
(PID.TID 0000.0001) %MON seaice_hsnow_sd              =   1.5572089398014E-01
(PID.TID 0000.0001) %MON seaice_hsnow_del2            =   1.2333325489137E-03
(PID.TID 0000.0001) // =======================================================
(PID.TID 0000.0001) // End MONITOR SEAICE statistics
(PID.TID 0000.0001) // =======================================================
 Computing Diagnostic #     86  oceQnet      Counter:       4   Parms: SM      U1      
 Computing Diagnostic #     87  oceQsw       Counter:       4   Parms: SM      U1      
 Computing Diagnostic #     84  oceFWflx     Counter:       4   Parms: SM      U1      
 Computing Diagnostic #     85  oceSflux     Counter:       4   Parms: SM      U1      
 Computing Diagnostic #     80  oceTAUX      Counter:       4   Parms: UU      U1      
           Vector  Mate for  oceTAUX      Diagnostic #     81  oceTAUY  exists 
 Computing Diagnostic #     81  oceTAUY      Counter:       4   Parms: VV      U1      
           Vector  Mate for  oceTAUY      Diagnostic #     80  oceTAUX  exists 
 Computing Diagnostic #     26  THETA        Counter:       4   Parms: SMR     MR      
 Computing Diagnostic #     27  SALT         Counter:       4   Parms: SMR     MR      
 Computing Diagnostic #     30  UVEL         Counter:       4   Parms: UUR     MR      
           Vector  Mate for  UVEL         Diagnostic #     31  VVEL     exists 
 Computing Diagnostic #     31  VVEL         Counter:       4   Parms: VVR     MR      
           Vector  Mate for  VVEL         Diagnostic #     30  UVEL     exists 
 Computing Diagnostic #    214  SIarea       Counter:       4   Parms: SM      M1      
 Computing Diagnostic #    217  SIheff       Counter:       4   Parms: SM      M1      
 Computing Diagnostic #    219  SIhsnow      Counter:       4   Parms: SM      M1      
 Computing Diagnostic #     83  sIceLoad     Counter:       4   Parms: SM      U1      
 Computing Diagnostic #    223  SIuice       Counter:       4   Parms: UU      M1      
           Vector  Mate for  SIuice       Diagnostic #    224  SIvice   exists 
 Computing Diagnostic #    224  SIvice       Counter:       4   Parms: VV      M1      
           Vector  Mate for  SIvice       Diagnostic #    223  SIuice   exists 
 Computing Diagnostic #    225  SItaux       Counter:       4   Parms: UU      U1      
           Vector  Mate for  SItaux       Diagnostic #    226  SItauy   exists 
 Computing Diagnostic #    226  SItauy       Counter:       4   Parms: VV      U1      
           Vector  Mate for  SItauy       Diagnostic #    225  SItaux   exists 
 Computing Diagnostic #    285  SIareaN      Counter:       4   Parms: SM      MX      
 Computing Diagnostic #    284  SIheffN      Counter:       4   Parms: SM      MX      
 Computing Diagnostic #    286  SIhsnowN     Counter:       4   Parms: SM      MX      
 Compute Stats, Diag. #    214  SIarea    vol(   0 ): 3.580E+14  Parms: SM      M1      
 Compute Stats, Diag. #    217  SIheff    vol(   0 ): 3.580E+14  Parms: SM      M1      
 Compute Stats, Diag. #    219  SIhsnow   vol(   0 ): 3.580E+14  Parms: SM      M1      
 Compute Stats, Diag. #     83  sIceLoad  vol(   0 ): 3.580E+14  Parms: SM      U1      
 Compute Stats, Diag. #    223  SIuice    vol(   0 ): 3.513E+14  Parms: UU      M1      
 Compute Stats, Diag. #    224  SIvice    vol(   0 ): 3.508E+14  Parms: VV      M1      
 Compute Stats, Diag. #    225  SItaux    vol(   0 ): 3.513E+14  Parms: UU      U1      
 Compute Stats, Diag. #    226  SItauy    vol(   0 ): 3.508E+14  Parms: VV      U1      
 cg2d: Sum(rhs),rhsMax =  -5.06081862235806E+01  2.92251010895178E-01
 Compute Stats, Diag. #    214  SIarea    vol(   0 ): 3.580E+14  Parms: SM      M1      
 Compute Stats, Diag. #    217  SIheff    vol(   0 ): 3.580E+14  Parms: SM      M1      
 Compute Stats, Diag. #    219  SIhsnow   vol(   0 ): 3.580E+14  Parms: SM      M1      
 Compute Stats, Diag. #     83  sIceLoad  vol(   0 ): 3.580E+14  Parms: SM      U1      
 Compute Stats, Diag. #    223  SIuice    vol(   0 ): 3.513E+14  Parms: UU      M1      
 Compute Stats, Diag. #    224  SIvice    vol(   0 ): 3.508E+14  Parms: VV      M1      
 Compute Stats, Diag. #    225  SItaux    vol(   0 ): 3.513E+14  Parms: UU      U1      
 Compute Stats, Diag. #    226  SItauy    vol(   0 ): 3.508E+14  Parms: VV      U1      
 cg2d: Sum(rhs),rhsMax =  -5.06934837883741E+01  2.92506347012156E-01
 Compute Stats, Diag. #    214  SIarea    vol(   0 ): 3.580E+14  Parms: SM      M1      
 Compute Stats, Diag. #    217  SIheff    vol(   0 ): 3.580E+14  Parms: SM      M1      
 Compute Stats, Diag. #    219  SIhsnow   vol(   0 ): 3.580E+14  Parms: SM      M1      
 Compute Stats, Diag. #     83  sIceLoad  vol(   0 ): 3.580E+14  Parms: SM      U1      
 Compute Stats, Diag. #    223  SIuice    vol(   0 ): 3.513E+14  Parms: UU      M1      
 Compute Stats, Diag. #    224  SIvice    vol(   0 ): 3.508E+14  Parms: VV      M1      
 Compute Stats, Diag. #    225  SItaux    vol(   0 ): 3.513E+14  Parms: UU      U1      
 Compute Stats, Diag. #    226  SItauy    vol(   0 ): 3.508E+14  Parms: VV      U1      
 cg2d: Sum(rhs),rhsMax =  -5.07730441137564E+01  2.92755683296793E-01
 Compute Stats, Diag. #    214  SIarea    vol(   0 ): 3.580E+14  Parms: SM      M1      
 Compute Stats, Diag. #    217  SIheff    vol(   0 ): 3.580E+14  Parms: SM      M1      
 Compute Stats, Diag. #    219  SIhsnow   vol(   0 ): 3.580E+14  Parms: SM      M1      
 Compute Stats, Diag. #     83  sIceLoad  vol(   0 ): 3.580E+14  Parms: SM      U1      
 Compute Stats, Diag. #    223  SIuice    vol(   0 ): 3.513E+14  Parms: UU      M1      
 Compute Stats, Diag. #    224  SIvice    vol(   0 ): 3.508E+14  Parms: VV      M1      
 Compute Stats, Diag. #    225  SItaux    vol(   0 ): 3.513E+14  Parms: UU      U1      
 Compute Stats, Diag. #    226  SItauy    vol(   0 ): 3.508E+14  Parms: VV      U1      
 cg2d: Sum(rhs),rhsMax =  -5.08454002457466E+01  2.92998826934868E-01
 Computing Diagnostic #     86  oceQnet      Counter:       4   Parms: SM      U1      
 Computing Diagnostic #     87  oceQsw       Counter:       4   Parms: SM      U1      
 Computing Diagnostic #     84  oceFWflx     Counter:       4   Parms: SM      U1      
 Computing Diagnostic #     85  oceSflux     Counter:       4   Parms: SM      U1      
 Computing Diagnostic #     80  oceTAUX      Counter:       4   Parms: UU      U1      
           Vector  Mate for  oceTAUX      Diagnostic #     81  oceTAUY  exists 
 Computing Diagnostic #     81  oceTAUY      Counter:       4   Parms: VV      U1      
           Vector  Mate for  oceTAUY      Diagnostic #     80  oceTAUX  exists 
 Computing Diagnostic #     26  THETA        Counter:       4   Parms: SMR     MR      
 Computing Diagnostic #     27  SALT         Counter:       4   Parms: SMR     MR      
 Computing Diagnostic #     30  UVEL         Counter:       4   Parms: UUR     MR      
           Vector  Mate for  UVEL         Diagnostic #     31  VVEL     exists 
 Computing Diagnostic #     31  VVEL         Counter:       4   Parms: VVR     MR      
           Vector  Mate for  VVEL         Diagnostic #     30  UVEL     exists 
 Computing Diagnostic #    214  SIarea       Counter:       4   Parms: SM      M1      
 Computing Diagnostic #    217  SIheff       Counter:       4   Parms: SM      M1      
 Computing Diagnostic #    219  SIhsnow      Counter:       4   Parms: SM      M1      
 Computing Diagnostic #     83  sIceLoad     Counter:       4   Parms: SM      U1      
 Computing Diagnostic #    223  SIuice       Counter:       4   Parms: UU      M1      
           Vector  Mate for  SIuice       Diagnostic #    224  SIvice   exists 
 Computing Diagnostic #    224  SIvice       Counter:       4   Parms: VV      M1      
           Vector  Mate for  SIvice       Diagnostic #    223  SIuice   exists 
 Computing Diagnostic #    225  SItaux       Counter:       4   Parms: UU      U1      
           Vector  Mate for  SItaux       Diagnostic #    226  SItauy   exists 
 Computing Diagnostic #    226  SItauy       Counter:       4   Parms: VV      U1      
           Vector  Mate for  SItauy       Diagnostic #    225  SItaux   exists 
 Computing Diagnostic #    285  SIareaN      Counter:       4   Parms: SM      MX      
 Computing Diagnostic #    284  SIheffN      Counter:       4   Parms: SM      MX      
 Computing Diagnostic #    286  SIhsnowN     Counter:       4   Parms: SM      MX      
 Compute Stats, Diag. #    214  SIarea    vol(   0 ): 3.580E+14  Parms: SM      M1      
 Compute Stats, Diag. #    217  SIheff    vol(   0 ): 3.580E+14  Parms: SM      M1      
 Compute Stats, Diag. #    219  SIhsnow   vol(   0 ): 3.580E+14  Parms: SM      M1      
 Compute Stats, Diag. #     83  sIceLoad  vol(   0 ): 3.580E+14  Parms: SM      U1      
 Compute Stats, Diag. #    223  SIuice    vol(   0 ): 3.513E+14  Parms: UU      M1      
 Compute Stats, Diag. #    224  SIvice    vol(   0 ): 3.508E+14  Parms: VV      M1      
 Compute Stats, Diag. #    225  SItaux    vol(   0 ): 3.513E+14  Parms: UU      U1      
 Compute Stats, Diag. #    226  SItauy    vol(   0 ): 3.508E+14  Parms: VV      U1      
 cg2d: Sum(rhs),rhsMax =  -5.08940845142034E+01  2.93236759719392E-01
 Compute Stats, Diag. #    214  SIarea    vol(   0 ): 3.580E+14  Parms: SM      M1      
 Compute Stats, Diag. #    217  SIheff    vol(   0 ): 3.580E+14  Parms: SM      M1      
 Compute Stats, Diag. #    219  SIhsnow   vol(   0 ): 3.580E+14  Parms: SM      M1      
 Compute Stats, Diag. #     83  sIceLoad  vol(   0 ): 3.580E+14  Parms: SM      U1      
 Compute Stats, Diag. #    223  SIuice    vol(   0 ): 3.513E+14  Parms: UU      M1      
 Compute Stats, Diag. #    224  SIvice    vol(   0 ): 3.508E+14  Parms: VV      M1      
 Compute Stats, Diag. #    225  SItaux    vol(   0 ): 3.513E+14  Parms: UU      U1      
 Compute Stats, Diag. #    226  SItauy    vol(   0 ): 3.508E+14  Parms: VV      U1      
 cg2d: Sum(rhs),rhsMax =  -5.09410086506565E+01  2.93468315431000E-01
 Compute Stats, Diag. #    214  SIarea    vol(   0 ): 3.580E+14  Parms: SM      M1      
 Compute Stats, Diag. #    217  SIheff    vol(   0 ): 3.580E+14  Parms: SM      M1      
 Compute Stats, Diag. #    219  SIhsnow   vol(   0 ): 3.580E+14  Parms: SM      M1      
 Compute Stats, Diag. #     83  sIceLoad  vol(   0 ): 3.580E+14  Parms: SM      U1      
 Compute Stats, Diag. #    223  SIuice    vol(   0 ): 3.513E+14  Parms: UU      M1      
 Compute Stats, Diag. #    224  SIvice    vol(   0 ): 3.508E+14  Parms: VV      M1      
 Compute Stats, Diag. #    225  SItaux    vol(   0 ): 3.513E+14  Parms: UU      U1      
 Compute Stats, Diag. #    226  SItauy    vol(   0 ): 3.508E+14  Parms: VV      U1      
 cg2d: Sum(rhs),rhsMax =  -5.09836165386969E+01  2.93694967423428E-01
 Compute Stats, Diag. #    214  SIarea    vol(   0 ): 3.580E+14  Parms: SM      M1      
 Compute Stats, Diag. #    217  SIheff    vol(   0 ): 3.580E+14  Parms: SM      M1      
 Compute Stats, Diag. #    219  SIhsnow   vol(   0 ): 3.580E+14  Parms: SM      M1      
 Compute Stats, Diag. #     83  sIceLoad  vol(   0 ): 3.580E+14  Parms: SM      U1      
 Compute Stats, Diag. #    223  SIuice    vol(   0 ): 3.513E+14  Parms: UU      M1      
 Compute Stats, Diag. #    224  SIvice    vol(   0 ): 3.508E+14  Parms: VV      M1      
 Compute Stats, Diag. #    225  SItaux    vol(   0 ): 3.513E+14  Parms: UU      U1      
 Compute Stats, Diag. #    226  SItauy    vol(   0 ): 3.508E+14  Parms: VV      U1      
 cg2d: Sum(rhs),rhsMax =  -5.10152983026164E+01  2.93917510361498E-01
(PID.TID 0000.0001)      cg2d_init_res =   3.80709895227218E-02
(PID.TID 0000.0001)      cg2d_iters(min,last) =      -1      22
(PID.TID 0000.0001)      cg2d_last_res =   2.56187724336888E-05
(PID.TID 0000.0001) // =======================================================
(PID.TID 0000.0001) // Begin MONITOR dynamic field statistics
(PID.TID 0000.0001) // =======================================================
(PID.TID 0000.0001) %MON time_tsnumber                =                  1160
(PID.TID 0000.0001) %MON time_secondsf                =   1.0440000000000E+06
(PID.TID 0000.0001) %MON dynstat_eta_max              =   1.0131680473679E+00
(PID.TID 0000.0001) %MON dynstat_eta_min              =  -1.8322828727608E+00
(PID.TID 0000.0001) %MON dynstat_eta_mean             =   1.6137768173637E-03
(PID.TID 0000.0001) %MON dynstat_eta_sd               =   6.2490030244807E-01
(PID.TID 0000.0001) %MON dynstat_eta_del2             =   5.1781214222671E-05
(PID.TID 0000.0001) %MON dynstat_uvel_max             =   6.6653344987536E-01
(PID.TID 0000.0001) %MON dynstat_uvel_min             =  -9.1476755483881E-01
(PID.TID 0000.0001) %MON dynstat_uvel_mean            =   1.3507184745902E-03
(PID.TID 0000.0001) %MON dynstat_uvel_sd              =   1.7989536227768E-02
(PID.TID 0000.0001) %MON dynstat_uvel_del2            =   6.9588631340396E-06
(PID.TID 0000.0001) %MON dynstat_vvel_max             =   6.4906393496906E-01
(PID.TID 0000.0001) %MON dynstat_vvel_min             =  -1.0593121724899E+00
(PID.TID 0000.0001) %MON dynstat_vvel_mean            =   1.0566150849308E-03
(PID.TID 0000.0001) %MON dynstat_vvel_sd              =   1.9503371238622E-02
(PID.TID 0000.0001) %MON dynstat_vvel_del2            =   7.2589322089850E-06
(PID.TID 0000.0001) %MON dynstat_wvel_max             =   3.2468178877186E-04
(PID.TID 0000.0001) %MON dynstat_wvel_min             =  -7.7610393778845E-04
(PID.TID 0000.0001) %MON dynstat_wvel_mean            =   3.0590923346204E-09
(PID.TID 0000.0001) %MON dynstat_wvel_sd              =   1.6041475207381E-05
(PID.TID 0000.0001) %MON dynstat_wvel_del2            =   1.4231979938037E-08
(PID.TID 0000.0001) %MON dynstat_theta_max            =   3.1515128431490E+01
(PID.TID 0000.0001) %MON dynstat_theta_min            =  -2.0395713751591E+00
(PID.TID 0000.0001) %MON dynstat_theta_mean           =   3.5900896758070E+00
(PID.TID 0000.0001) %MON dynstat_theta_sd             =   4.4368563067329E+00
(PID.TID 0000.0001) %MON dynstat_theta_del2           =   8.9611497763631E-05
(PID.TID 0000.0001) %MON dynstat_salt_max             =   4.0711550226322E+01
(PID.TID 0000.0001) %MON dynstat_salt_min             =   6.0573778269877E+00
(PID.TID 0000.0001) %MON dynstat_salt_mean            =   3.4725557331722E+01
(PID.TID 0000.0001) %MON dynstat_salt_sd              =   3.7713786121142E-01
(PID.TID 0000.0001) %MON dynstat_salt_del2            =   3.5557023567980E-05
(PID.TID 0000.0001) %MON dynstat_sst_max              =   3.1515112758882E+01
(PID.TID 0000.0001) %MON dynstat_sst_min              =  -1.8061205149608E+00
(PID.TID 0000.0001) %MON dynstat_sst_mean             =   1.8451122821828E+01
(PID.TID 0000.0001) %MON dynstat_sst_sd               =   1.0305219143122E+01
(PID.TID 0000.0001) %MON dynstat_sst_del2             =   7.8794408799289E-04
(PID.TID 0000.0001) %MON dynstat_sss_max              =   3.9097925581718E+01
(PID.TID 0000.0001) %MON dynstat_sss_min              =   6.0573778269877E+00
(PID.TID 0000.0001) %MON dynstat_sss_mean             =   3.4701522454294E+01
(PID.TID 0000.0001) %MON dynstat_sss_sd               =   1.1857964045286E+00
(PID.TID 0000.0001) %MON dynstat_sss_del2             =   1.0596007472100E-03
(PID.TID 0000.0001) %MON forcing_qnet_max             =   1.1749732575516E+03
(PID.TID 0000.0001) %MON forcing_qnet_min             =  -8.9285131835938E+02
(PID.TID 0000.0001) %MON forcing_qnet_mean            =  -2.8544671444630E+01
(PID.TID 0000.0001) %MON forcing_qnet_sd              =   2.1647868824786E+02
(PID.TID 0000.0001) %MON forcing_qnet_del2            =   3.3067763767906E-01
(PID.TID 0000.0001) %MON forcing_qsw_max              =   0.0000000000000E+00
(PID.TID 0000.0001) %MON forcing_qsw_min              =  -1.0938486993115E+02
(PID.TID 0000.0001) %MON forcing_qsw_mean             =  -2.2759603759778E+01
(PID.TID 0000.0001) %MON forcing_qsw_sd               =   3.1214803008214E+01
(PID.TID 0000.0001) %MON forcing_qsw_del2             =   1.9127370608905E-02
(PID.TID 0000.0001) %MON forcing_empmr_max            =   1.3716634130105E-03
(PID.TID 0000.0001) %MON forcing_empmr_min            =  -8.5548378527164E-02
(PID.TID 0000.0001) %MON forcing_empmr_mean           =  -1.1458433817590E-06
(PID.TID 0000.0001) %MON forcing_empmr_sd             =   3.2041189022948E-04
(PID.TID 0000.0001) %MON forcing_empmr_del2           =   3.2370874721163E-06
(PID.TID 0000.0001) %MON forcing_fu_max               =   8.3167782425880E-01
(PID.TID 0000.0001) %MON forcing_fu_min               =  -8.7583896817140E-01
(PID.TID 0000.0001) %MON forcing_fu_mean              =   3.9168877572666E-03
(PID.TID 0000.0001) %MON forcing_fu_sd                =   1.0753555487379E-01
(PID.TID 0000.0001) %MON forcing_fu_del2              =   1.3623673437929E-04
(PID.TID 0000.0001) %MON forcing_fv_max               =   5.6878620386124E-01
(PID.TID 0000.0001) %MON forcing_fv_min               =  -1.1009768843651E+00
(PID.TID 0000.0001) %MON forcing_fv_mean              =  -9.9069899628005E-03
(PID.TID 0000.0001) %MON forcing_fv_sd                =   1.0874979000299E-01
(PID.TID 0000.0001) %MON forcing_fv_del2              =   1.5436934447886E-04
(PID.TID 0000.0001) %MON trAdv_CFL_u_max              =   1.1981285538353E-02
(PID.TID 0000.0001) %MON trAdv_CFL_v_max              =   1.4588371879688E-02
(PID.TID 0000.0001) %MON trAdv_CFL_w_max              =   2.1714572982806E-02
(PID.TID 0000.0001) %MON advcfl_uvel_max              =   1.0294057951669E-02
(PID.TID 0000.0001) %MON advcfl_vvel_max              =   1.3619377372992E-02
(PID.TID 0000.0001) %MON advcfl_wvel_max              =   2.3868003269111E-02
(PID.TID 0000.0001) %MON advcfl_W_hf_max              =   2.5033409757350E-02
(PID.TID 0000.0001) %MON pe_b_mean                    =   5.1366793501709E-04
(PID.TID 0000.0001) %MON ke_max                       =   5.8841740976081E-01
(PID.TID 0000.0001) %MON ke_mean                      =   3.4088674228891E-04
(PID.TID 0000.0001) %MON ke_vol                       =   1.3349984543350E+18
(PID.TID 0000.0001) %MON vort_r_min                   =  -1.7998270869482E-05
(PID.TID 0000.0001) %MON vort_r_max                   =   2.0896816761685E-05
(PID.TID 0000.0001) %MON vort_a_mean                  =  -1.9727864647440E-05
(PID.TID 0000.0001) %MON vort_a_sd                    =   7.4542979678179E-05
(PID.TID 0000.0001) %MON vort_p_mean                  =  -2.1760524309174E-05
(PID.TID 0000.0001) %MON vort_p_sd                    =   9.7247258570041E-05
(PID.TID 0000.0001) %MON surfExpan_theta_mean         =   1.8803945847845E-07
(PID.TID 0000.0001) %MON surfExpan_salt_mean          =   4.9112130907320E-08
(PID.TID 0000.0001) // =======================================================
(PID.TID 0000.0001) // End MONITOR dynamic field statistics
(PID.TID 0000.0001) // =======================================================
(PID.TID 0000.0001) // =======================================================
(PID.TID 0000.0001) // Begin MONITOR SEAICE statistics
(PID.TID 0000.0001) // =======================================================
(PID.TID 0000.0001) %MON seaice_tsnumber              =                  1160
(PID.TID 0000.0001) %MON seaice_time_sec              =   1.0440000000000E+06
(PID.TID 0000.0001) %MON seaice_uice_max              =   4.0000000000000E-01
(PID.TID 0000.0001) %MON seaice_uice_min              =  -4.0000000000000E-01
(PID.TID 0000.0001) %MON seaice_uice_mean             =  -8.3054598624025E-03
(PID.TID 0000.0001) %MON seaice_uice_sd               =   1.9802383574176E-01
(PID.TID 0000.0001) %MON seaice_uice_del2             =   2.2931571122150E-04
(PID.TID 0000.0001) %MON seaice_vice_max              =   4.0000000000000E-01
(PID.TID 0000.0001) %MON seaice_vice_min              =  -4.0000000000000E-01
(PID.TID 0000.0001) %MON seaice_vice_mean             =  -2.1960776359499E-02
(PID.TID 0000.0001) %MON seaice_vice_sd               =   2.1302038025672E-01
(PID.TID 0000.0001) %MON seaice_vice_del2             =   2.3932563818061E-04
(PID.TID 0000.0001) %MON seaice_area_max              =   9.9999999813735E-01
(PID.TID 0000.0001) %MON seaice_area_min              =   0.0000000000000E+00
(PID.TID 0000.0001) %MON seaice_area_mean             =   6.4484793128386E-02
(PID.TID 0000.0001) %MON seaice_area_sd               =   2.2741411738820E-01
(PID.TID 0000.0001) %MON seaice_area_del2             =   3.7074167306076E-04
(PID.TID 0000.0001) %MON seaice_heff_max              =   2.4887770945788E+01
(PID.TID 0000.0001) %MON seaice_heff_min              =   0.0000000000000E+00
(PID.TID 0000.0001) %MON seaice_heff_mean             =   2.1133098314078E-01
(PID.TID 0000.0001) %MON seaice_heff_sd               =   1.0654240979751E+00
(PID.TID 0000.0001) %MON seaice_heff_del2             =   3.8101169224320E-03
(PID.TID 0000.0001) %MON seaice_hsnow_max             =   8.2204241580330E+00
(PID.TID 0000.0001) %MON seaice_hsnow_min             =   0.0000000000000E+00
(PID.TID 0000.0001) %MON seaice_hsnow_mean            =   2.3851422927338E-02
(PID.TID 0000.0001) %MON seaice_hsnow_sd              =   1.5571605373362E-01
(PID.TID 0000.0001) %MON seaice_hsnow_del2            =   1.2332119750923E-03
(PID.TID 0000.0001) // =======================================================
(PID.TID 0000.0001) // End MONITOR SEAICE statistics
(PID.TID 0000.0001) // =======================================================
 Computing Diagnostic #     86  oceQnet      Counter:       4   Parms: SM      U1      
 Computing Diagnostic #     87  oceQsw       Counter:       4   Parms: SM      U1      
 Computing Diagnostic #     84  oceFWflx     Counter:       4   Parms: SM      U1      
 Computing Diagnostic #     85  oceSflux     Counter:       4   Parms: SM      U1      
 Computing Diagnostic #     80  oceTAUX      Counter:       4   Parms: UU      U1      
           Vector  Mate for  oceTAUX      Diagnostic #     81  oceTAUY  exists 
 Computing Diagnostic #     81  oceTAUY      Counter:       4   Parms: VV      U1      
           Vector  Mate for  oceTAUY      Diagnostic #     80  oceTAUX  exists 
 Computing Diagnostic #     26  THETA        Counter:       4   Parms: SMR     MR      
 Computing Diagnostic #     27  SALT         Counter:       4   Parms: SMR     MR      
 Computing Diagnostic #     30  UVEL         Counter:       4   Parms: UUR     MR      
           Vector  Mate for  UVEL         Diagnostic #     31  VVEL     exists 
 Computing Diagnostic #     31  VVEL         Counter:       4   Parms: VVR     MR      
           Vector  Mate for  VVEL         Diagnostic #     30  UVEL     exists 
 Computing Diagnostic #    214  SIarea       Counter:       4   Parms: SM      M1      
 Computing Diagnostic #    217  SIheff       Counter:       4   Parms: SM      M1      
 Computing Diagnostic #    219  SIhsnow      Counter:       4   Parms: SM      M1      
 Computing Diagnostic #     83  sIceLoad     Counter:       4   Parms: SM      U1      
 Computing Diagnostic #    223  SIuice       Counter:       4   Parms: UU      M1      
           Vector  Mate for  SIuice       Diagnostic #    224  SIvice   exists 
 Computing Diagnostic #    224  SIvice       Counter:       4   Parms: VV      M1      
           Vector  Mate for  SIvice       Diagnostic #    223  SIuice   exists 
 Computing Diagnostic #    225  SItaux       Counter:       4   Parms: UU      U1      
           Vector  Mate for  SItaux       Diagnostic #    226  SItauy   exists 
 Computing Diagnostic #    226  SItauy       Counter:       4   Parms: VV      U1      
           Vector  Mate for  SItauy       Diagnostic #    225  SItaux   exists 
 Computing Diagnostic #    285  SIareaN      Counter:       4   Parms: SM      MX      
 Computing Diagnostic #    284  SIheffN      Counter:       4   Parms: SM      MX      
 Computing Diagnostic #    286  SIhsnowN     Counter:       4   Parms: SM      MX      
 Compute Stats, Diag. #    214  SIarea    vol(   0 ): 3.580E+14  Parms: SM      M1      
 Compute Stats, Diag. #    217  SIheff    vol(   0 ): 3.580E+14  Parms: SM      M1      
 Compute Stats, Diag. #    219  SIhsnow   vol(   0 ): 3.580E+14  Parms: SM      M1      
 Compute Stats, Diag. #     83  sIceLoad  vol(   0 ): 3.580E+14  Parms: SM      U1      
 Compute Stats, Diag. #    223  SIuice    vol(   0 ): 3.513E+14  Parms: UU      M1      
 Compute Stats, Diag. #    224  SIvice    vol(   0 ): 3.508E+14  Parms: VV      M1      
 Compute Stats, Diag. #    225  SItaux    vol(   0 ): 3.513E+14  Parms: UU      U1      
 Compute Stats, Diag. #    226  SItauy    vol(   0 ): 3.508E+14  Parms: VV      U1      
 cg2d: Sum(rhs),rhsMax =  -5.10438936647656E+01  2.94135652679037E-01
 Compute Stats, Diag. #    214  SIarea    vol(   0 ): 3.580E+14  Parms: SM      M1      
 Compute Stats, Diag. #    217  SIheff    vol(   0 ): 3.580E+14  Parms: SM      M1      
 Compute Stats, Diag. #    219  SIhsnow   vol(   0 ): 3.580E+14  Parms: SM      M1      
 Compute Stats, Diag. #     83  sIceLoad  vol(   0 ): 3.580E+14  Parms: SM      U1      
 Compute Stats, Diag. #    223  SIuice    vol(   0 ): 3.513E+14  Parms: UU      M1      
 Compute Stats, Diag. #    224  SIvice    vol(   0 ): 3.508E+14  Parms: VV      M1      
 Compute Stats, Diag. #    225  SItaux    vol(   0 ): 3.513E+14  Parms: UU      U1      
 Compute Stats, Diag. #    226  SItauy    vol(   0 ): 3.508E+14  Parms: VV      U1      
 cg2d: Sum(rhs),rhsMax =  -5.10630929125585E+01  2.94350460804488E-01
 Compute Stats, Diag. #    214  SIarea    vol(   0 ): 3.580E+14  Parms: SM      M1      
 Compute Stats, Diag. #    217  SIheff    vol(   0 ): 3.580E+14  Parms: SM      M1      
 Compute Stats, Diag. #    219  SIhsnow   vol(   0 ): 3.580E+14  Parms: SM      M1      
 Compute Stats, Diag. #     83  sIceLoad  vol(   0 ): 3.580E+14  Parms: SM      U1      
 Compute Stats, Diag. #    223  SIuice    vol(   0 ): 3.513E+14  Parms: UU      M1      
 Compute Stats, Diag. #    224  SIvice    vol(   0 ): 3.508E+14  Parms: VV      M1      
 Compute Stats, Diag. #    225  SItaux    vol(   0 ): 3.513E+14  Parms: UU      U1      
 Compute Stats, Diag. #    226  SItauy    vol(   0 ): 3.508E+14  Parms: VV      U1      
 cg2d: Sum(rhs),rhsMax =  -5.10880829388594E+01  2.94565576392034E-01
 Compute Stats, Diag. #    214  SIarea    vol(   0 ): 3.580E+14  Parms: SM      M1      
 Compute Stats, Diag. #    217  SIheff    vol(   0 ): 3.580E+14  Parms: SM      M1      
 Compute Stats, Diag. #    219  SIhsnow   vol(   0 ): 3.580E+14  Parms: SM      M1      
 Compute Stats, Diag. #     83  sIceLoad  vol(   0 ): 3.580E+14  Parms: SM      U1      
 Compute Stats, Diag. #    223  SIuice    vol(   0 ): 3.513E+14  Parms: UU      M1      
 Compute Stats, Diag. #    224  SIvice    vol(   0 ): 3.508E+14  Parms: VV      M1      
 Compute Stats, Diag. #    225  SItaux    vol(   0 ): 3.513E+14  Parms: UU      U1      
 Compute Stats, Diag. #    226  SItauy    vol(   0 ): 3.508E+14  Parms: VV      U1      
 cg2d: Sum(rhs),rhsMax =  -5.11152928703898E+01  2.94781652954695E-01
 Computing Diagnostic #     86  oceQnet      Counter:       4   Parms: SM      U1      
 Computing Diagnostic #     87  oceQsw       Counter:       4   Parms: SM      U1      
 Computing Diagnostic #     84  oceFWflx     Counter:       4   Parms: SM      U1      
 Computing Diagnostic #     85  oceSflux     Counter:       4   Parms: SM      U1      
 Computing Diagnostic #     80  oceTAUX      Counter:       4   Parms: UU      U1      
           Vector  Mate for  oceTAUX      Diagnostic #     81  oceTAUY  exists 
 Computing Diagnostic #     81  oceTAUY      Counter:       4   Parms: VV      U1      
           Vector  Mate for  oceTAUY      Diagnostic #     80  oceTAUX  exists 
 Computing Diagnostic #     26  THETA        Counter:       4   Parms: SMR     MR      
 Computing Diagnostic #     27  SALT         Counter:       4   Parms: SMR     MR      
 Computing Diagnostic #     30  UVEL         Counter:       4   Parms: UUR     MR      
           Vector  Mate for  UVEL         Diagnostic #     31  VVEL     exists 
 Computing Diagnostic #     31  VVEL         Counter:       4   Parms: VVR     MR      
           Vector  Mate for  VVEL         Diagnostic #     30  UVEL     exists 
 Computing Diagnostic #    214  SIarea       Counter:       4   Parms: SM      M1      
 Computing Diagnostic #    217  SIheff       Counter:       4   Parms: SM      M1      
 Computing Diagnostic #    219  SIhsnow      Counter:       4   Parms: SM      M1      
 Computing Diagnostic #     83  sIceLoad     Counter:       4   Parms: SM      U1      
 Computing Diagnostic #    223  SIuice       Counter:       4   Parms: UU      M1      
           Vector  Mate for  SIuice       Diagnostic #    224  SIvice   exists 
 Computing Diagnostic #    224  SIvice       Counter:       4   Parms: VV      M1      
           Vector  Mate for  SIvice       Diagnostic #    223  SIuice   exists 
 Computing Diagnostic #    225  SItaux       Counter:       4   Parms: UU      U1      
           Vector  Mate for  SItaux       Diagnostic #    226  SItauy   exists 
 Computing Diagnostic #    226  SItauy       Counter:       4   Parms: VV      U1      
           Vector  Mate for  SItauy       Diagnostic #    225  SItaux   exists 
 Computing Diagnostic #    285  SIareaN      Counter:       4   Parms: SM      MX      
 Computing Diagnostic #    284  SIheffN      Counter:       4   Parms: SM      MX      
 Computing Diagnostic #    286  SIhsnowN     Counter:       4   Parms: SM      MX      
 Compute Stats, Diag. #    214  SIarea    vol(   0 ): 3.580E+14  Parms: SM      M1      
 Compute Stats, Diag. #    217  SIheff    vol(   0 ): 3.580E+14  Parms: SM      M1      
 Compute Stats, Diag. #    219  SIhsnow   vol(   0 ): 3.580E+14  Parms: SM      M1      
 Compute Stats, Diag. #     83  sIceLoad  vol(   0 ): 3.580E+14  Parms: SM      U1      
 Compute Stats, Diag. #    223  SIuice    vol(   0 ): 3.513E+14  Parms: UU      M1      
 Compute Stats, Diag. #    224  SIvice    vol(   0 ): 3.508E+14  Parms: VV      M1      
 Compute Stats, Diag. #    225  SItaux    vol(   0 ): 3.513E+14  Parms: UU      U1      
 Compute Stats, Diag. #    226  SItauy    vol(   0 ): 3.508E+14  Parms: VV      U1      
 cg2d: Sum(rhs),rhsMax =  -5.11440475651767E+01  2.94993333643151E-01
 Compute Stats, Diag. #    214  SIarea    vol(   0 ): 3.580E+14  Parms: SM      M1      
 Compute Stats, Diag. #    217  SIheff    vol(   0 ): 3.580E+14  Parms: SM      M1      
 Compute Stats, Diag. #    219  SIhsnow   vol(   0 ): 3.580E+14  Parms: SM      M1      
 Compute Stats, Diag. #     83  sIceLoad  vol(   0 ): 3.580E+14  Parms: SM      U1      
 Compute Stats, Diag. #    223  SIuice    vol(   0 ): 3.513E+14  Parms: UU      M1      
 Compute Stats, Diag. #    224  SIvice    vol(   0 ): 3.508E+14  Parms: VV      M1      
 Compute Stats, Diag. #    225  SItaux    vol(   0 ): 3.513E+14  Parms: UU      U1      
 Compute Stats, Diag. #    226  SItauy    vol(   0 ): 3.508E+14  Parms: VV      U1      
 cg2d: Sum(rhs),rhsMax =  -5.11651727717054E+01  2.95201208569169E-01
 Compute Stats, Diag. #    214  SIarea    vol(   0 ): 3.580E+14  Parms: SM      M1      
 Compute Stats, Diag. #    217  SIheff    vol(   0 ): 3.580E+14  Parms: SM      M1      
 Compute Stats, Diag. #    219  SIhsnow   vol(   0 ): 3.580E+14  Parms: SM      M1      
 Compute Stats, Diag. #     83  sIceLoad  vol(   0 ): 3.580E+14  Parms: SM      U1      
 Compute Stats, Diag. #    223  SIuice    vol(   0 ): 3.513E+14  Parms: UU      M1      
 Compute Stats, Diag. #    224  SIvice    vol(   0 ): 3.508E+14  Parms: VV      M1      
 Compute Stats, Diag. #    225  SItaux    vol(   0 ): 3.513E+14  Parms: UU      U1      
 Compute Stats, Diag. #    226  SItauy    vol(   0 ): 3.508E+14  Parms: VV      U1      
 cg2d: Sum(rhs),rhsMax =  -5.11933097175618E+01  2.95406649922694E-01
 Compute Stats, Diag. #    214  SIarea    vol(   0 ): 3.580E+14  Parms: SM      M1      
 Compute Stats, Diag. #    217  SIheff    vol(   0 ): 3.580E+14  Parms: SM      M1      
 Compute Stats, Diag. #    219  SIhsnow   vol(   0 ): 3.580E+14  Parms: SM      M1      
 Compute Stats, Diag. #     83  sIceLoad  vol(   0 ): 3.580E+14  Parms: SM      U1      
 Compute Stats, Diag. #    223  SIuice    vol(   0 ): 3.513E+14  Parms: UU      M1      
 Compute Stats, Diag. #    224  SIvice    vol(   0 ): 3.508E+14  Parms: VV      M1      
 Compute Stats, Diag. #    225  SItaux    vol(   0 ): 3.513E+14  Parms: UU      U1      
 Compute Stats, Diag. #    226  SItauy    vol(   0 ): 3.508E+14  Parms: VV      U1      
 cg2d: Sum(rhs),rhsMax =  -5.12176639457723E+01  2.95609997153467E-01
(PID.TID 0000.0001)      cg2d_init_res =   3.88214834167271E-02
(PID.TID 0000.0001)      cg2d_iters(min,last) =      -1      22
(PID.TID 0000.0001)      cg2d_last_res =   2.80485471433461E-05
(PID.TID 0000.0001) // =======================================================
(PID.TID 0000.0001) // Begin MONITOR dynamic field statistics
(PID.TID 0000.0001) // =======================================================
(PID.TID 0000.0001) %MON time_tsnumber                =                  1168
(PID.TID 0000.0001) %MON time_secondsf                =   1.0512000000000E+06
(PID.TID 0000.0001) %MON dynstat_eta_max              =   1.0142205577034E+00
(PID.TID 0000.0001) %MON dynstat_eta_min              =  -1.8344731195241E+00
(PID.TID 0000.0001) %MON dynstat_eta_mean             =   1.6201782889698E-03
(PID.TID 0000.0001) %MON dynstat_eta_sd               =   6.2507271864970E-01
(PID.TID 0000.0001) %MON dynstat_eta_del2             =   5.1827995201338E-05
(PID.TID 0000.0001) %MON dynstat_uvel_max             =   6.6454726590653E-01
(PID.TID 0000.0001) %MON dynstat_uvel_min             =  -9.1839581069217E-01
(PID.TID 0000.0001) %MON dynstat_uvel_mean            =   1.3583402365224E-03
(PID.TID 0000.0001) %MON dynstat_uvel_sd              =   1.7995670064111E-02
(PID.TID 0000.0001) %MON dynstat_uvel_del2            =   6.9680936772573E-06
(PID.TID 0000.0001) %MON dynstat_vvel_max             =   6.4913712787031E-01
(PID.TID 0000.0001) %MON dynstat_vvel_min             =  -1.0643816124196E+00
(PID.TID 0000.0001) %MON dynstat_vvel_mean            =   1.0559177859053E-03
(PID.TID 0000.0001) %MON dynstat_vvel_sd              =   1.9529307370566E-02
(PID.TID 0000.0001) %MON dynstat_vvel_del2            =   7.2790941000691E-06
(PID.TID 0000.0001) %MON dynstat_wvel_max             =   3.2746478352710E-04
(PID.TID 0000.0001) %MON dynstat_wvel_min             =  -7.7344632043789E-04
(PID.TID 0000.0001) %MON dynstat_wvel_mean            =   2.3687365994921E-09
(PID.TID 0000.0001) %MON dynstat_wvel_sd              =   1.6219558521664E-05
(PID.TID 0000.0001) %MON dynstat_wvel_del2            =   1.4311962830082E-08
(PID.TID 0000.0001) %MON dynstat_theta_max            =   3.1503805641556E+01
(PID.TID 0000.0001) %MON dynstat_theta_min            =  -2.0395644119417E+00
(PID.TID 0000.0001) %MON dynstat_theta_mean           =   3.5900987503134E+00
(PID.TID 0000.0001) %MON dynstat_theta_sd             =   4.4369192033333E+00
(PID.TID 0000.0001) %MON dynstat_theta_del2           =   8.9563732962317E-05
(PID.TID 0000.0001) %MON dynstat_salt_max             =   4.0711550588639E+01
(PID.TID 0000.0001) %MON dynstat_salt_min             =   6.3131632918851E+00
(PID.TID 0000.0001) %MON dynstat_salt_mean            =   3.4725557247677E+01
(PID.TID 0000.0001) %MON dynstat_salt_sd              =   3.7713939770518E-01
(PID.TID 0000.0001) %MON dynstat_salt_del2            =   3.5571612145660E-05
(PID.TID 0000.0001) %MON dynstat_sst_max              =   3.1503805641556E+01
(PID.TID 0000.0001) %MON dynstat_sst_min              =  -1.8044882347382E+00
(PID.TID 0000.0001) %MON dynstat_sst_mean             =   1.8453411439948E+01
(PID.TID 0000.0001) %MON dynstat_sst_sd               =   1.0307284398608E+01
(PID.TID 0000.0001) %MON dynstat_sst_del2             =   7.8938919095647E-04
(PID.TID 0000.0001) %MON dynstat_sss_max              =   3.9097950146232E+01
(PID.TID 0000.0001) %MON dynstat_sss_min              =   6.3131632918851E+00
(PID.TID 0000.0001) %MON dynstat_sss_mean             =   3.4701600587047E+01
(PID.TID 0000.0001) %MON dynstat_sss_sd               =   1.1859278276941E+00
(PID.TID 0000.0001) %MON dynstat_sss_del2             =   1.0575703688673E-03
(PID.TID 0000.0001) %MON forcing_qnet_max             =   7.9134448242188E+02
(PID.TID 0000.0001) %MON forcing_qnet_min             =  -7.4200552415585E+02
(PID.TID 0000.0001) %MON forcing_qnet_mean            =  -1.1456690808053E+01
(PID.TID 0000.0001) %MON forcing_qnet_sd              =   2.0149678509320E+02
(PID.TID 0000.0001) %MON forcing_qnet_del2            =   3.2180064835029E-01
(PID.TID 0000.0001) %MON forcing_qsw_max              =   0.0000000000000E+00
(PID.TID 0000.0001) %MON forcing_qsw_min              =  -1.0986433514456E+02
(PID.TID 0000.0001) %MON forcing_qsw_mean             =  -2.1388724590640E+01
(PID.TID 0000.0001) %MON forcing_qsw_sd               =   3.0288259724191E+01
(PID.TID 0000.0001) %MON forcing_qsw_del2             =   2.1071231672758E-02
(PID.TID 0000.0001) %MON forcing_empmr_max            =   2.1503365132958E-03
(PID.TID 0000.0001) %MON forcing_empmr_min            =  -4.3827332556248E-02
(PID.TID 0000.0001) %MON forcing_empmr_mean           =  -8.8082631004515E-07
(PID.TID 0000.0001) %MON forcing_empmr_sd             =   2.5705809054528E-04
(PID.TID 0000.0001) %MON forcing_empmr_del2           =   2.5710329143968E-06
(PID.TID 0000.0001) %MON forcing_fu_max               =   8.4351870417595E-01
(PID.TID 0000.0001) %MON forcing_fu_min               =  -8.3235005423128E-01
(PID.TID 0000.0001) %MON forcing_fu_mean              =   4.1609289363717E-03
(PID.TID 0000.0001) %MON forcing_fu_sd                =   1.0766494353020E-01
(PID.TID 0000.0001) %MON forcing_fu_del2              =   1.3521061332270E-04
(PID.TID 0000.0001) %MON forcing_fv_max               =   5.6190511584282E-01
(PID.TID 0000.0001) %MON forcing_fv_min               =  -1.0898137688637E+00
(PID.TID 0000.0001) %MON forcing_fv_mean              =  -9.1955652757723E-03
(PID.TID 0000.0001) %MON forcing_fv_sd                =   1.0936102819667E-01
(PID.TID 0000.0001) %MON forcing_fv_del2              =   1.5671684540919E-04
(PID.TID 0000.0001) %MON trAdv_CFL_u_max              =   1.2016297201695E-02
(PID.TID 0000.0001) %MON trAdv_CFL_v_max              =   1.4417233926464E-02
(PID.TID 0000.0001) %MON trAdv_CFL_w_max              =   2.1654251496781E-02
(PID.TID 0000.0001) %MON advcfl_uvel_max              =   1.0328488746565E-02
(PID.TID 0000.0001) %MON advcfl_vvel_max              =   1.3449626497942E-02
(PID.TID 0000.0001) %MON advcfl_wvel_max              =   2.3810512034191E-02
(PID.TID 0000.0001) %MON advcfl_W_hf_max              =   2.4973084728125E-02
(PID.TID 0000.0001) %MON pe_b_mean                    =   5.1395145072017E-04
(PID.TID 0000.0001) %MON ke_max                       =   5.9552460750544E-01
(PID.TID 0000.0001) %MON ke_mean                      =   3.4149062694167E-04
(PID.TID 0000.0001) %MON ke_vol                       =   1.3349984567098E+18
(PID.TID 0000.0001) %MON vort_r_min                   =  -1.7793649009065E-05
(PID.TID 0000.0001) %MON vort_r_max                   =   2.0610821886668E-05
(PID.TID 0000.0001) %MON vort_a_mean                  =  -1.9727864647440E-05
(PID.TID 0000.0001) %MON vort_a_sd                    =   7.4542981604578E-05
(PID.TID 0000.0001) %MON vort_p_mean                  =  -2.1760524271169E-05
(PID.TID 0000.0001) %MON vort_p_sd                    =   9.7247299189460E-05
(PID.TID 0000.0001) %MON surfExpan_theta_mean         =   1.4195675751591E-07
(PID.TID 0000.0001) %MON surfExpan_salt_mean          =   3.3743519923183E-08
(PID.TID 0000.0001) // =======================================================
(PID.TID 0000.0001) // End MONITOR dynamic field statistics
(PID.TID 0000.0001) // =======================================================
(PID.TID 0000.0001) // =======================================================
(PID.TID 0000.0001) // Begin MONITOR SEAICE statistics
(PID.TID 0000.0001) // =======================================================
(PID.TID 0000.0001) %MON seaice_tsnumber              =                  1168
(PID.TID 0000.0001) %MON seaice_time_sec              =   1.0512000000000E+06
(PID.TID 0000.0001) %MON seaice_uice_max              =   4.0000000000000E-01
(PID.TID 0000.0001) %MON seaice_uice_min              =  -4.0000000000000E-01
(PID.TID 0000.0001) %MON seaice_uice_mean             =  -8.3054598624025E-03
(PID.TID 0000.0001) %MON seaice_uice_sd               =   1.9802383574176E-01
(PID.TID 0000.0001) %MON seaice_uice_del2             =   2.2931571122150E-04
(PID.TID 0000.0001) %MON seaice_vice_max              =   4.0000000000000E-01
(PID.TID 0000.0001) %MON seaice_vice_min              =  -4.0000000000000E-01
(PID.TID 0000.0001) %MON seaice_vice_mean             =  -2.1960776359499E-02
(PID.TID 0000.0001) %MON seaice_vice_sd               =   2.1302038025672E-01
(PID.TID 0000.0001) %MON seaice_vice_del2             =   2.3932563818061E-04
(PID.TID 0000.0001) %MON seaice_area_max              =   9.9999999813735E-01
(PID.TID 0000.0001) %MON seaice_area_min              =   0.0000000000000E+00
(PID.TID 0000.0001) %MON seaice_area_mean             =   6.4456623460638E-02
(PID.TID 0000.0001) %MON seaice_area_sd               =   2.2736365201198E-01
(PID.TID 0000.0001) %MON seaice_area_del2             =   3.7050642376742E-04
(PID.TID 0000.0001) %MON seaice_heff_max              =   2.4886420887196E+01
(PID.TID 0000.0001) %MON seaice_heff_min              =   0.0000000000000E+00
(PID.TID 0000.0001) %MON seaice_heff_mean             =   2.1130963863712E-01
(PID.TID 0000.0001) %MON seaice_heff_sd               =   1.0654090180319E+00
(PID.TID 0000.0001) %MON seaice_heff_del2             =   3.8095784486287E-03
(PID.TID 0000.0001) %MON seaice_hsnow_max             =   8.2199737704650E+00
(PID.TID 0000.0001) %MON seaice_hsnow_min             =   0.0000000000000E+00
(PID.TID 0000.0001) %MON seaice_hsnow_mean            =   2.3846803291911E-02
(PID.TID 0000.0001) %MON seaice_hsnow_sd              =   1.5570962455769E-01
(PID.TID 0000.0001) %MON seaice_hsnow_del2            =   1.2330970438414E-03
(PID.TID 0000.0001) // =======================================================
(PID.TID 0000.0001) // End MONITOR SEAICE statistics
(PID.TID 0000.0001) // =======================================================
 Computing Diagnostic #     86  oceQnet      Counter:       4   Parms: SM      U1      
 Computing Diagnostic #     87  oceQsw       Counter:       4   Parms: SM      U1      
 Computing Diagnostic #     84  oceFWflx     Counter:       4   Parms: SM      U1      
 Computing Diagnostic #     85  oceSflux     Counter:       4   Parms: SM      U1      
 Computing Diagnostic #     80  oceTAUX      Counter:       4   Parms: UU      U1      
           Vector  Mate for  oceTAUX      Diagnostic #     81  oceTAUY  exists 
 Computing Diagnostic #     81  oceTAUY      Counter:       4   Parms: VV      U1      
           Vector  Mate for  oceTAUY      Diagnostic #     80  oceTAUX  exists 
 Computing Diagnostic #     26  THETA        Counter:       4   Parms: SMR     MR      
 Computing Diagnostic #     27  SALT         Counter:       4   Parms: SMR     MR      
 Computing Diagnostic #     30  UVEL         Counter:       4   Parms: UUR     MR      
           Vector  Mate for  UVEL         Diagnostic #     31  VVEL     exists 
 Computing Diagnostic #     31  VVEL         Counter:       4   Parms: VVR     MR      
           Vector  Mate for  VVEL         Diagnostic #     30  UVEL     exists 
 Computing Diagnostic #    214  SIarea       Counter:       4   Parms: SM      M1      
 Computing Diagnostic #    217  SIheff       Counter:       4   Parms: SM      M1      
 Computing Diagnostic #    219  SIhsnow      Counter:       4   Parms: SM      M1      
 Computing Diagnostic #     83  sIceLoad     Counter:       4   Parms: SM      U1      
 Computing Diagnostic #    223  SIuice       Counter:       4   Parms: UU      M1      
           Vector  Mate for  SIuice       Diagnostic #    224  SIvice   exists 
 Computing Diagnostic #    224  SIvice       Counter:       4   Parms: VV      M1      
           Vector  Mate for  SIvice       Diagnostic #    223  SIuice   exists 
 Computing Diagnostic #    225  SItaux       Counter:       4   Parms: UU      U1      
           Vector  Mate for  SItaux       Diagnostic #    226  SItauy   exists 
 Computing Diagnostic #    226  SItauy       Counter:       4   Parms: VV      U1      
           Vector  Mate for  SItauy       Diagnostic #    225  SItaux   exists 
 Computing Diagnostic #    285  SIareaN      Counter:       4   Parms: SM      MX      
 Computing Diagnostic #    284  SIheffN      Counter:       4   Parms: SM      MX      
 Computing Diagnostic #    286  SIhsnowN     Counter:       4   Parms: SM      MX      
 Compute Stats, Diag. #    214  SIarea    vol(   0 ): 3.580E+14  Parms: SM      M1      
 Compute Stats, Diag. #    217  SIheff    vol(   0 ): 3.580E+14  Parms: SM      M1      
 Compute Stats, Diag. #    219  SIhsnow   vol(   0 ): 3.580E+14  Parms: SM      M1      
 Compute Stats, Diag. #     83  sIceLoad  vol(   0 ): 3.580E+14  Parms: SM      U1      
 Compute Stats, Diag. #    223  SIuice    vol(   0 ): 3.513E+14  Parms: UU      M1      
 Compute Stats, Diag. #    224  SIvice    vol(   0 ): 3.508E+14  Parms: VV      M1      
 Compute Stats, Diag. #    225  SItaux    vol(   0 ): 3.513E+14  Parms: UU      U1      
 Compute Stats, Diag. #    226  SItauy    vol(   0 ): 3.508E+14  Parms: VV      U1      
 cg2d: Sum(rhs),rhsMax =  -5.12391783411458E+01  2.95810652950094E-01
 Compute Stats, Diag. #    214  SIarea    vol(   0 ): 3.580E+14  Parms: SM      M1      
 Compute Stats, Diag. #    217  SIheff    vol(   0 ): 3.580E+14  Parms: SM      M1      
 Compute Stats, Diag. #    219  SIhsnow   vol(   0 ): 3.580E+14  Parms: SM      M1      
 Compute Stats, Diag. #     83  sIceLoad  vol(   0 ): 3.580E+14  Parms: SM      U1      
 Compute Stats, Diag. #    223  SIuice    vol(   0 ): 3.513E+14  Parms: UU      M1      
 Compute Stats, Diag. #    224  SIvice    vol(   0 ): 3.508E+14  Parms: VV      M1      
 Compute Stats, Diag. #    225  SItaux    vol(   0 ): 3.513E+14  Parms: UU      U1      
 Compute Stats, Diag. #    226  SItauy    vol(   0 ): 3.508E+14  Parms: VV      U1      
 cg2d: Sum(rhs),rhsMax =  -5.12628614870549E+01  2.96009733584156E-01
 Compute Stats, Diag. #    214  SIarea    vol(   0 ): 3.580E+14  Parms: SM      M1      
 Compute Stats, Diag. #    217  SIheff    vol(   0 ): 3.580E+14  Parms: SM      M1      
 Compute Stats, Diag. #    219  SIhsnow   vol(   0 ): 3.580E+14  Parms: SM      M1      
 Compute Stats, Diag. #     83  sIceLoad  vol(   0 ): 3.580E+14  Parms: SM      U1      
 Compute Stats, Diag. #    223  SIuice    vol(   0 ): 3.513E+14  Parms: UU      M1      
 Compute Stats, Diag. #    224  SIvice    vol(   0 ): 3.508E+14  Parms: VV      M1      
 Compute Stats, Diag. #    225  SItaux    vol(   0 ): 3.513E+14  Parms: UU      U1      
 Compute Stats, Diag. #    226  SItauy    vol(   0 ): 3.508E+14  Parms: VV      U1      
 cg2d: Sum(rhs),rhsMax =  -5.12959894879396E+01  2.96206667220787E-01
 Compute Stats, Diag. #    214  SIarea    vol(   0 ): 3.580E+14  Parms: SM      M1      
 Compute Stats, Diag. #    217  SIheff    vol(   0 ): 3.580E+14  Parms: SM      M1      
 Compute Stats, Diag. #    219  SIhsnow   vol(   0 ): 3.580E+14  Parms: SM      M1      
 Compute Stats, Diag. #     83  sIceLoad  vol(   0 ): 3.580E+14  Parms: SM      U1      
 Compute Stats, Diag. #    223  SIuice    vol(   0 ): 3.513E+14  Parms: UU      M1      
 Compute Stats, Diag. #    224  SIvice    vol(   0 ): 3.508E+14  Parms: VV      M1      
 Compute Stats, Diag. #    225  SItaux    vol(   0 ): 3.513E+14  Parms: UU      U1      
 Compute Stats, Diag. #    226  SItauy    vol(   0 ): 3.508E+14  Parms: VV      U1      
 cg2d: Sum(rhs),rhsMax =  -5.13287510662692E+01  2.96402291707707E-01
 Computing Diagnostic #     86  oceQnet      Counter:       4   Parms: SM      U1      
 Computing Diagnostic #     87  oceQsw       Counter:       4   Parms: SM      U1      
 Computing Diagnostic #     84  oceFWflx     Counter:       4   Parms: SM      U1      
 Computing Diagnostic #     85  oceSflux     Counter:       4   Parms: SM      U1      
 Computing Diagnostic #     80  oceTAUX      Counter:       4   Parms: UU      U1      
           Vector  Mate for  oceTAUX      Diagnostic #     81  oceTAUY  exists 
 Computing Diagnostic #     81  oceTAUY      Counter:       4   Parms: VV      U1      
           Vector  Mate for  oceTAUY      Diagnostic #     80  oceTAUX  exists 
 Computing Diagnostic #     26  THETA        Counter:       4   Parms: SMR     MR      
 Computing Diagnostic #     27  SALT         Counter:       4   Parms: SMR     MR      
 Computing Diagnostic #     30  UVEL         Counter:       4   Parms: UUR     MR      
           Vector  Mate for  UVEL         Diagnostic #     31  VVEL     exists 
 Computing Diagnostic #     31  VVEL         Counter:       4   Parms: VVR     MR      
           Vector  Mate for  VVEL         Diagnostic #     30  UVEL     exists 
 Computing Diagnostic #    214  SIarea       Counter:       4   Parms: SM      M1      
 Computing Diagnostic #    217  SIheff       Counter:       4   Parms: SM      M1      
 Computing Diagnostic #    219  SIhsnow      Counter:       4   Parms: SM      M1      
 Computing Diagnostic #     83  sIceLoad     Counter:       4   Parms: SM      U1      
 Computing Diagnostic #    223  SIuice       Counter:       4   Parms: UU      M1      
           Vector  Mate for  SIuice       Diagnostic #    224  SIvice   exists 
 Computing Diagnostic #    224  SIvice       Counter:       4   Parms: VV      M1      
           Vector  Mate for  SIvice       Diagnostic #    223  SIuice   exists 
 Computing Diagnostic #    225  SItaux       Counter:       4   Parms: UU      U1      
           Vector  Mate for  SItaux       Diagnostic #    226  SItauy   exists 
 Computing Diagnostic #    226  SItauy       Counter:       4   Parms: VV      U1      
           Vector  Mate for  SItauy       Diagnostic #    225  SItaux   exists 
 Computing Diagnostic #    285  SIareaN      Counter:       4   Parms: SM      MX      
 Computing Diagnostic #    284  SIheffN      Counter:       4   Parms: SM      MX      
 Computing Diagnostic #    286  SIhsnowN     Counter:       4   Parms: SM      MX      
 Compute Stats, Diag. #    214  SIarea    vol(   0 ): 3.580E+14  Parms: SM      M1      
 Compute Stats, Diag. #    217  SIheff    vol(   0 ): 3.580E+14  Parms: SM      M1      
 Compute Stats, Diag. #    219  SIhsnow   vol(   0 ): 3.580E+14  Parms: SM      M1      
 Compute Stats, Diag. #     83  sIceLoad  vol(   0 ): 3.580E+14  Parms: SM      U1      
 Compute Stats, Diag. #    223  SIuice    vol(   0 ): 3.513E+14  Parms: UU      M1      
 Compute Stats, Diag. #    224  SIvice    vol(   0 ): 3.508E+14  Parms: VV      M1      
 Compute Stats, Diag. #    225  SItaux    vol(   0 ): 3.513E+14  Parms: UU      U1      
 Compute Stats, Diag. #    226  SItauy    vol(   0 ): 3.508E+14  Parms: VV      U1      
 cg2d: Sum(rhs),rhsMax =  -5.13601853128446E+01  2.96596743878147E-01
 Compute Stats, Diag. #    214  SIarea    vol(   0 ): 3.580E+14  Parms: SM      M1      
 Compute Stats, Diag. #    217  SIheff    vol(   0 ): 3.580E+14  Parms: SM      M1      
 Compute Stats, Diag. #    219  SIhsnow   vol(   0 ): 3.580E+14  Parms: SM      M1      
 Compute Stats, Diag. #     83  sIceLoad  vol(   0 ): 3.580E+14  Parms: SM      U1      
 Compute Stats, Diag. #    223  SIuice    vol(   0 ): 3.513E+14  Parms: UU      M1      
 Compute Stats, Diag. #    224  SIvice    vol(   0 ): 3.508E+14  Parms: VV      M1      
 Compute Stats, Diag. #    225  SItaux    vol(   0 ): 3.513E+14  Parms: UU      U1      
 Compute Stats, Diag. #    226  SItauy    vol(   0 ): 3.508E+14  Parms: VV      U1      
 cg2d: Sum(rhs),rhsMax =  -5.14043083237768E+01  2.96789661354367E-01
 Compute Stats, Diag. #    214  SIarea    vol(   0 ): 3.580E+14  Parms: SM      M1      
 Compute Stats, Diag. #    217  SIheff    vol(   0 ): 3.580E+14  Parms: SM      M1      
 Compute Stats, Diag. #    219  SIhsnow   vol(   0 ): 3.580E+14  Parms: SM      M1      
 Compute Stats, Diag. #     83  sIceLoad  vol(   0 ): 3.580E+14  Parms: SM      U1      
 Compute Stats, Diag. #    223  SIuice    vol(   0 ): 3.513E+14  Parms: UU      M1      
 Compute Stats, Diag. #    224  SIvice    vol(   0 ): 3.508E+14  Parms: VV      M1      
 Compute Stats, Diag. #    225  SItaux    vol(   0 ): 3.513E+14  Parms: UU      U1      
 Compute Stats, Diag. #    226  SItauy    vol(   0 ): 3.508E+14  Parms: VV      U1      
 cg2d: Sum(rhs),rhsMax =  -5.14561182538324E+01  2.96981445169505E-01
 Compute Stats, Diag. #    214  SIarea    vol(   0 ): 3.580E+14  Parms: SM      M1      
 Compute Stats, Diag. #    217  SIheff    vol(   0 ): 3.580E+14  Parms: SM      M1      
 Compute Stats, Diag. #    219  SIhsnow   vol(   0 ): 3.580E+14  Parms: SM      M1      
 Compute Stats, Diag. #     83  sIceLoad  vol(   0 ): 3.580E+14  Parms: SM      U1      
 Compute Stats, Diag. #    223  SIuice    vol(   0 ): 3.513E+14  Parms: UU      M1      
 Compute Stats, Diag. #    224  SIvice    vol(   0 ): 3.508E+14  Parms: VV      M1      
 Compute Stats, Diag. #    225  SItaux    vol(   0 ): 3.513E+14  Parms: UU      U1      
 Compute Stats, Diag. #    226  SItauy    vol(   0 ): 3.508E+14  Parms: VV      U1      
 cg2d: Sum(rhs),rhsMax =  -5.15073719072763E+01  2.97171506446363E-01
(PID.TID 0000.0001)      cg2d_init_res =   3.79829758366728E-02
(PID.TID 0000.0001)      cg2d_iters(min,last) =      -1      23
(PID.TID 0000.0001)      cg2d_last_res =   2.25353724592602E-05
(PID.TID 0000.0001) // =======================================================
(PID.TID 0000.0001) // Begin MONITOR dynamic field statistics
(PID.TID 0000.0001) // =======================================================
(PID.TID 0000.0001) %MON time_tsnumber                =                  1176
(PID.TID 0000.0001) %MON time_secondsf                =   1.0584000000000E+06
(PID.TID 0000.0001) %MON dynstat_eta_max              =   1.0150706061646E+00
(PID.TID 0000.0001) %MON dynstat_eta_min              =  -1.8367549622560E+00
(PID.TID 0000.0001) %MON dynstat_eta_mean             =   1.6293426770579E-03
(PID.TID 0000.0001) %MON dynstat_eta_sd               =   6.2524145840656E-01
(PID.TID 0000.0001) %MON dynstat_eta_del2             =   5.2072361742178E-05
(PID.TID 0000.0001) %MON dynstat_uvel_max             =   6.5926839482232E-01
(PID.TID 0000.0001) %MON dynstat_uvel_min             =  -9.2017188246636E-01
(PID.TID 0000.0001) %MON dynstat_uvel_mean            =   1.3700171395672E-03
(PID.TID 0000.0001) %MON dynstat_uvel_sd              =   1.7984766301735E-02
(PID.TID 0000.0001) %MON dynstat_uvel_del2            =   6.9791194035643E-06
(PID.TID 0000.0001) %MON dynstat_vvel_max             =   6.4593690865855E-01
(PID.TID 0000.0001) %MON dynstat_vvel_min             =  -1.0670749505509E+00
(PID.TID 0000.0001) %MON dynstat_vvel_mean            =   1.0592289000091E-03
(PID.TID 0000.0001) %MON dynstat_vvel_sd              =   1.9548042881243E-02
(PID.TID 0000.0001) %MON dynstat_vvel_del2            =   7.2874875204132E-06
(PID.TID 0000.0001) %MON dynstat_wvel_max             =   3.1867326996426E-04
(PID.TID 0000.0001) %MON dynstat_wvel_min             =  -7.7065901835938E-04
(PID.TID 0000.0001) %MON dynstat_wvel_mean            =   1.6033140292128E-09
(PID.TID 0000.0001) %MON dynstat_wvel_sd              =   1.6370357811893E-05
(PID.TID 0000.0001) %MON dynstat_wvel_del2            =   1.4338588629701E-08
(PID.TID 0000.0001) %MON dynstat_theta_max            =   3.1509596669515E+01
(PID.TID 0000.0001) %MON dynstat_theta_min            =  -2.0395575960984E+00
(PID.TID 0000.0001) %MON dynstat_theta_mean           =   3.5900979154976E+00
(PID.TID 0000.0001) %MON dynstat_theta_sd             =   4.4369405670230E+00
(PID.TID 0000.0001) %MON dynstat_theta_del2           =   8.9520939202597E-05
(PID.TID 0000.0001) %MON dynstat_salt_max             =   4.0711550881416E+01
(PID.TID 0000.0001) %MON dynstat_salt_min             =   6.5933750737421E+00
(PID.TID 0000.0001) %MON dynstat_salt_mean            =   3.4725557154234E+01
(PID.TID 0000.0001) %MON dynstat_salt_sd              =   3.7714064726708E-01
(PID.TID 0000.0001) %MON dynstat_salt_del2            =   3.5679432189395E-05
(PID.TID 0000.0001) %MON dynstat_sst_max              =   3.1509596669515E+01
(PID.TID 0000.0001) %MON dynstat_sst_min              =  -1.8043360235341E+00
(PID.TID 0000.0001) %MON dynstat_sst_mean             =   1.8452338708466E+01
(PID.TID 0000.0001) %MON dynstat_sst_sd               =   1.0308073072085E+01
(PID.TID 0000.0001) %MON dynstat_sst_del2             =   7.9059979386052E-04
(PID.TID 0000.0001) %MON dynstat_sss_max              =   3.9097975660445E+01
(PID.TID 0000.0001) %MON dynstat_sss_min              =   6.5933750737421E+00
(PID.TID 0000.0001) %MON dynstat_sss_mean             =   3.4701632984388E+01
(PID.TID 0000.0001) %MON dynstat_sss_sd               =   1.1859983374338E+00
(PID.TID 0000.0001) %MON dynstat_sss_del2             =   1.0600125372919E-03
(PID.TID 0000.0001) %MON forcing_qnet_max             =   8.0000781250000E+02
(PID.TID 0000.0001) %MON forcing_qnet_min             =  -8.6337947685315E+02
(PID.TID 0000.0001) %MON forcing_qnet_mean            =   1.0142582018981E+01
(PID.TID 0000.0001) %MON forcing_qnet_sd              =   1.8089767340584E+02
(PID.TID 0000.0001) %MON forcing_qnet_del2            =   3.0979917941435E-01
(PID.TID 0000.0001) %MON forcing_qsw_max              =   0.0000000000000E+00
(PID.TID 0000.0001) %MON forcing_qsw_min              =  -1.0880905539259E+02
(PID.TID 0000.0001) %MON forcing_qsw_mean             =  -1.8852972759792E+01
(PID.TID 0000.0001) %MON forcing_qsw_sd               =   2.8023548741758E+01
(PID.TID 0000.0001) %MON forcing_qsw_del2             =   2.2193011481059E-02
(PID.TID 0000.0001) %MON forcing_empmr_max            =   1.7259386368096E-03
(PID.TID 0000.0001) %MON forcing_empmr_min            =  -8.4693074226379E-02
(PID.TID 0000.0001) %MON forcing_empmr_mean           =  -1.8537054862016E-06
(PID.TID 0000.0001) %MON forcing_empmr_sd             =   3.0717031492176E-04
(PID.TID 0000.0001) %MON forcing_empmr_del2           =   4.3829047160803E-06
(PID.TID 0000.0001) %MON forcing_fu_max               =   8.0389517545700E-01
(PID.TID 0000.0001) %MON forcing_fu_min               =  -8.4750428795815E-01
(PID.TID 0000.0001) %MON forcing_fu_mean              =   4.5415738140059E-03
(PID.TID 0000.0001) %MON forcing_fu_sd                =   1.0800123508139E-01
(PID.TID 0000.0001) %MON forcing_fu_del2              =   1.3299573539847E-04
(PID.TID 0000.0001) %MON forcing_fv_max               =   5.7490140199661E-01
(PID.TID 0000.0001) %MON forcing_fv_min               =  -1.1104727983475E+00
(PID.TID 0000.0001) %MON forcing_fv_mean              =  -9.0863203986356E-03
(PID.TID 0000.0001) %MON forcing_fv_sd                =   1.0991027629213E-01
(PID.TID 0000.0001) %MON forcing_fv_del2              =   1.5542847531294E-04
(PID.TID 0000.0001) %MON trAdv_CFL_u_max              =   1.2038714107560E-02
(PID.TID 0000.0001) %MON trAdv_CFL_v_max              =   1.4230432929174E-02
(PID.TID 0000.0001) %MON trAdv_CFL_w_max              =   2.1593021477653E-02
(PID.TID 0000.0001) %MON advcfl_uvel_max              =   1.0359064484940E-02
(PID.TID 0000.0001) %MON advcfl_vvel_max              =   1.3261902926430E-02
(PID.TID 0000.0001) %MON advcfl_wvel_max              =   2.3752137290824E-02
(PID.TID 0000.0001) %MON advcfl_W_hf_max              =   2.4911853929897E-02
(PID.TID 0000.0001) %MON pe_b_mean                    =   5.1422900898726E-04
(PID.TID 0000.0001) %MON ke_max                       =   5.9983273400304E-01
(PID.TID 0000.0001) %MON ke_mean                      =   3.4167330335436E-04
(PID.TID 0000.0001) %MON ke_vol                       =   1.3349984596861E+18
(PID.TID 0000.0001) %MON vort_r_min                   =  -1.7534938783866E-05
(PID.TID 0000.0001) %MON vort_r_max                   =   2.0218654542792E-05
(PID.TID 0000.0001) %MON vort_a_mean                  =  -1.9727864647440E-05
(PID.TID 0000.0001) %MON vort_a_sd                    =   7.4542984071571E-05
(PID.TID 0000.0001) %MON vort_p_mean                  =  -2.1760524221638E-05
(PID.TID 0000.0001) %MON vort_p_sd                    =   9.7247326495096E-05
(PID.TID 0000.0001) %MON surfExpan_theta_mean         =   1.2495103642937E-07
(PID.TID 0000.0001) %MON surfExpan_salt_mean          =   2.8860233536110E-08
(PID.TID 0000.0001) // =======================================================
(PID.TID 0000.0001) // End MONITOR dynamic field statistics
(PID.TID 0000.0001) // =======================================================
(PID.TID 0000.0001) // =======================================================
(PID.TID 0000.0001) // Begin MONITOR SEAICE statistics
(PID.TID 0000.0001) // =======================================================
(PID.TID 0000.0001) %MON seaice_tsnumber              =                  1176
(PID.TID 0000.0001) %MON seaice_time_sec              =   1.0584000000000E+06
(PID.TID 0000.0001) %MON seaice_uice_max              =   4.0000000000000E-01
(PID.TID 0000.0001) %MON seaice_uice_min              =  -4.0000000000000E-01
(PID.TID 0000.0001) %MON seaice_uice_mean             =  -8.3054598624025E-03
(PID.TID 0000.0001) %MON seaice_uice_sd               =   1.9802383574176E-01
(PID.TID 0000.0001) %MON seaice_uice_del2             =   2.2931571122150E-04
(PID.TID 0000.0001) %MON seaice_vice_max              =   4.0000000000000E-01
(PID.TID 0000.0001) %MON seaice_vice_min              =  -4.0000000000000E-01
(PID.TID 0000.0001) %MON seaice_vice_mean             =  -2.1960776359499E-02
(PID.TID 0000.0001) %MON seaice_vice_sd               =   2.1302038025672E-01
(PID.TID 0000.0001) %MON seaice_vice_del2             =   2.3932563818061E-04
(PID.TID 0000.0001) %MON seaice_area_max              =   1.0000000000000E+00
(PID.TID 0000.0001) %MON seaice_area_min              =   0.0000000000000E+00
(PID.TID 0000.0001) %MON seaice_area_mean             =   6.4425498450187E-02
(PID.TID 0000.0001) %MON seaice_area_sd               =   2.2730784823558E-01
(PID.TID 0000.0001) %MON seaice_area_del2             =   3.7028709831684E-04
(PID.TID 0000.0001) %MON seaice_heff_max              =   2.4885084458627E+01
(PID.TID 0000.0001) %MON seaice_heff_min              =   0.0000000000000E+00
(PID.TID 0000.0001) %MON seaice_heff_mean             =   2.1128677013503E-01
(PID.TID 0000.0001) %MON seaice_heff_sd               =   1.0653942673008E+00
(PID.TID 0000.0001) %MON seaice_heff_del2             =   3.8090427810247E-03
(PID.TID 0000.0001) %MON seaice_hsnow_max             =   8.2195274344704E+00
(PID.TID 0000.0001) %MON seaice_hsnow_min             =   0.0000000000000E+00
(PID.TID 0000.0001) %MON seaice_hsnow_mean            =   2.3842011228014E-02
(PID.TID 0000.0001) %MON seaice_hsnow_sd              =   1.5570231328037E-01
(PID.TID 0000.0001) %MON seaice_hsnow_del2            =   1.2329853301191E-03
(PID.TID 0000.0001) // =======================================================
(PID.TID 0000.0001) // End MONITOR SEAICE statistics
(PID.TID 0000.0001) // =======================================================
 Computing Diagnostic #     86  oceQnet      Counter:       4   Parms: SM      U1      
 Computing Diagnostic #     87  oceQsw       Counter:       4   Parms: SM      U1      
 Computing Diagnostic #     84  oceFWflx     Counter:       4   Parms: SM      U1      
 Computing Diagnostic #     85  oceSflux     Counter:       4   Parms: SM      U1      
 Computing Diagnostic #     80  oceTAUX      Counter:       4   Parms: UU      U1      
           Vector  Mate for  oceTAUX      Diagnostic #     81  oceTAUY  exists 
 Computing Diagnostic #     81  oceTAUY      Counter:       4   Parms: VV      U1      
           Vector  Mate for  oceTAUY      Diagnostic #     80  oceTAUX  exists 
 Computing Diagnostic #     26  THETA        Counter:       4   Parms: SMR     MR      
 Computing Diagnostic #     27  SALT         Counter:       4   Parms: SMR     MR      
 Computing Diagnostic #     30  UVEL         Counter:       4   Parms: UUR     MR      
           Vector  Mate for  UVEL         Diagnostic #     31  VVEL     exists 
 Computing Diagnostic #     31  VVEL         Counter:       4   Parms: VVR     MR      
           Vector  Mate for  VVEL         Diagnostic #     30  UVEL     exists 
 Computing Diagnostic #    214  SIarea       Counter:       4   Parms: SM      M1      
 Computing Diagnostic #    217  SIheff       Counter:       4   Parms: SM      M1      
 Computing Diagnostic #    219  SIhsnow      Counter:       4   Parms: SM      M1      
 Computing Diagnostic #     83  sIceLoad     Counter:       4   Parms: SM      U1      
 Computing Diagnostic #    223  SIuice       Counter:       4   Parms: UU      M1      
           Vector  Mate for  SIuice       Diagnostic #    224  SIvice   exists 
 Computing Diagnostic #    224  SIvice       Counter:       4   Parms: VV      M1      
           Vector  Mate for  SIvice       Diagnostic #    223  SIuice   exists 
 Computing Diagnostic #    225  SItaux       Counter:       4   Parms: UU      U1      
           Vector  Mate for  SItaux       Diagnostic #    226  SItauy   exists 
 Computing Diagnostic #    226  SItauy       Counter:       4   Parms: VV      U1      
           Vector  Mate for  SItauy       Diagnostic #    225  SItaux   exists 
 Computing Diagnostic #    285  SIareaN      Counter:       4   Parms: SM      MX      
 Computing Diagnostic #    284  SIheffN      Counter:       4   Parms: SM      MX      
 Computing Diagnostic #    286  SIhsnowN     Counter:       4   Parms: SM      MX      
 Compute Stats, Diag. #    214  SIarea    vol(   0 ): 3.580E+14  Parms: SM      M1      
 Compute Stats, Diag. #    217  SIheff    vol(   0 ): 3.580E+14  Parms: SM      M1      
 Compute Stats, Diag. #    219  SIhsnow   vol(   0 ): 3.580E+14  Parms: SM      M1      
 Compute Stats, Diag. #     83  sIceLoad  vol(   0 ): 3.580E+14  Parms: SM      U1      
 Compute Stats, Diag. #    223  SIuice    vol(   0 ): 3.513E+14  Parms: UU      M1      
 Compute Stats, Diag. #    224  SIvice    vol(   0 ): 3.508E+14  Parms: VV      M1      
 Compute Stats, Diag. #    225  SItaux    vol(   0 ): 3.513E+14  Parms: UU      U1      
 Compute Stats, Diag. #    226  SItauy    vol(   0 ): 3.508E+14  Parms: VV      U1      
 cg2d: Sum(rhs),rhsMax =  -5.15589192300163E+01  2.97361014436454E-01
 Compute Stats, Diag. #    214  SIarea    vol(   0 ): 3.580E+14  Parms: SM      M1      
 Compute Stats, Diag. #    217  SIheff    vol(   0 ): 3.580E+14  Parms: SM      M1      
 Compute Stats, Diag. #    219  SIhsnow   vol(   0 ): 3.580E+14  Parms: SM      M1      
 Compute Stats, Diag. #     83  sIceLoad  vol(   0 ): 3.580E+14  Parms: SM      U1      
 Compute Stats, Diag. #    223  SIuice    vol(   0 ): 3.513E+14  Parms: UU      M1      
 Compute Stats, Diag. #    224  SIvice    vol(   0 ): 3.508E+14  Parms: VV      M1      
 Compute Stats, Diag. #    225  SItaux    vol(   0 ): 3.513E+14  Parms: UU      U1      
 Compute Stats, Diag. #    226  SItauy    vol(   0 ): 3.508E+14  Parms: VV      U1      
 cg2d: Sum(rhs),rhsMax =  -5.16104534631239E+01  2.97550453692683E-01
 Compute Stats, Diag. #    214  SIarea    vol(   0 ): 3.580E+14  Parms: SM      M1      
 Compute Stats, Diag. #    217  SIheff    vol(   0 ): 3.580E+14  Parms: SM      M1      
 Compute Stats, Diag. #    219  SIhsnow   vol(   0 ): 3.580E+14  Parms: SM      M1      
 Compute Stats, Diag. #     83  sIceLoad  vol(   0 ): 3.580E+14  Parms: SM      U1      
 Compute Stats, Diag. #    223  SIuice    vol(   0 ): 3.513E+14  Parms: UU      M1      
 Compute Stats, Diag. #    224  SIvice    vol(   0 ): 3.508E+14  Parms: VV      M1      
 Compute Stats, Diag. #    225  SItaux    vol(   0 ): 3.513E+14  Parms: UU      U1      
 Compute Stats, Diag. #    226  SItauy    vol(   0 ): 3.508E+14  Parms: VV      U1      
 cg2d: Sum(rhs),rhsMax =  -5.16646197785786E+01  2.97739443693847E-01
 Compute Stats, Diag. #    214  SIarea    vol(   0 ): 3.580E+14  Parms: SM      M1      
 Compute Stats, Diag. #    217  SIheff    vol(   0 ): 3.580E+14  Parms: SM      M1      
 Compute Stats, Diag. #    219  SIhsnow   vol(   0 ): 3.580E+14  Parms: SM      M1      
 Compute Stats, Diag. #     83  sIceLoad  vol(   0 ): 3.580E+14  Parms: SM      U1      
 Compute Stats, Diag. #    223  SIuice    vol(   0 ): 3.513E+14  Parms: UU      M1      
 Compute Stats, Diag. #    224  SIvice    vol(   0 ): 3.508E+14  Parms: VV      M1      
 Compute Stats, Diag. #    225  SItaux    vol(   0 ): 3.513E+14  Parms: UU      U1      
 Compute Stats, Diag. #    226  SItauy    vol(   0 ): 3.508E+14  Parms: VV      U1      
 cg2d: Sum(rhs),rhsMax =  -5.17187732458486E+01  2.97927984925416E-01
 Computing Diagnostic #     86  oceQnet      Counter:       4   Parms: SM      U1      
 Computing Diagnostic #     87  oceQsw       Counter:       4   Parms: SM      U1      
 Computing Diagnostic #     84  oceFWflx     Counter:       4   Parms: SM      U1      
 Computing Diagnostic #     85  oceSflux     Counter:       4   Parms: SM      U1      
 Computing Diagnostic #     80  oceTAUX      Counter:       4   Parms: UU      U1      
           Vector  Mate for  oceTAUX      Diagnostic #     81  oceTAUY  exists 
 Computing Diagnostic #     81  oceTAUY      Counter:       4   Parms: VV      U1      
           Vector  Mate for  oceTAUY      Diagnostic #     80  oceTAUX  exists 
 Computing Diagnostic #     26  THETA        Counter:       4   Parms: SMR     MR      
 Computing Diagnostic #     27  SALT         Counter:       4   Parms: SMR     MR      
 Computing Diagnostic #     30  UVEL         Counter:       4   Parms: UUR     MR      
           Vector  Mate for  UVEL         Diagnostic #     31  VVEL     exists 
 Computing Diagnostic #     31  VVEL         Counter:       4   Parms: VVR     MR      
           Vector  Mate for  VVEL         Diagnostic #     30  UVEL     exists 
 Computing Diagnostic #    214  SIarea       Counter:       4   Parms: SM      M1      
 Computing Diagnostic #    217  SIheff       Counter:       4   Parms: SM      M1      
 Computing Diagnostic #    219  SIhsnow      Counter:       4   Parms: SM      M1      
 Computing Diagnostic #     83  sIceLoad     Counter:       4   Parms: SM      U1      
 Computing Diagnostic #    223  SIuice       Counter:       4   Parms: UU      M1      
           Vector  Mate for  SIuice       Diagnostic #    224  SIvice   exists 
 Computing Diagnostic #    224  SIvice       Counter:       4   Parms: VV      M1      
           Vector  Mate for  SIvice       Diagnostic #    223  SIuice   exists 
 Computing Diagnostic #    225  SItaux       Counter:       4   Parms: UU      U1      
           Vector  Mate for  SItaux       Diagnostic #    226  SItauy   exists 
 Computing Diagnostic #    226  SItauy       Counter:       4   Parms: VV      U1      
           Vector  Mate for  SItauy       Diagnostic #    225  SItaux   exists 
 Computing Diagnostic #    285  SIareaN      Counter:       4   Parms: SM      MX      
 Computing Diagnostic #    284  SIheffN      Counter:       4   Parms: SM      MX      
 Computing Diagnostic #    286  SIhsnowN     Counter:       4   Parms: SM      MX      
 Compute Stats, Diag. #    214  SIarea    vol(   0 ): 3.580E+14  Parms: SM      M1      
 Compute Stats, Diag. #    217  SIheff    vol(   0 ): 3.580E+14  Parms: SM      M1      
 Compute Stats, Diag. #    219  SIhsnow   vol(   0 ): 3.580E+14  Parms: SM      M1      
 Compute Stats, Diag. #     83  sIceLoad  vol(   0 ): 3.580E+14  Parms: SM      U1      
 Compute Stats, Diag. #    223  SIuice    vol(   0 ): 3.513E+14  Parms: UU      M1      
 Compute Stats, Diag. #    224  SIvice    vol(   0 ): 3.508E+14  Parms: VV      M1      
 Compute Stats, Diag. #    225  SItaux    vol(   0 ): 3.513E+14  Parms: UU      U1      
 Compute Stats, Diag. #    226  SItauy    vol(   0 ): 3.508E+14  Parms: VV      U1      
 cg2d: Sum(rhs),rhsMax =  -5.17734784661570E+01  2.98114721226671E-01
 Compute Stats, Diag. #    214  SIarea    vol(   0 ): 3.580E+14  Parms: SM      M1      
 Compute Stats, Diag. #    217  SIheff    vol(   0 ): 3.580E+14  Parms: SM      M1      
 Compute Stats, Diag. #    219  SIhsnow   vol(   0 ): 3.580E+14  Parms: SM      M1      
 Compute Stats, Diag. #     83  sIceLoad  vol(   0 ): 3.580E+14  Parms: SM      U1      
 Compute Stats, Diag. #    223  SIuice    vol(   0 ): 3.513E+14  Parms: UU      M1      
 Compute Stats, Diag. #    224  SIvice    vol(   0 ): 3.508E+14  Parms: VV      M1      
 Compute Stats, Diag. #    225  SItaux    vol(   0 ): 3.513E+14  Parms: UU      U1      
 Compute Stats, Diag. #    226  SItauy    vol(   0 ): 3.508E+14  Parms: VV      U1      
 cg2d: Sum(rhs),rhsMax =  -5.18280826697914E+01  2.98299636602237E-01
 Compute Stats, Diag. #    214  SIarea    vol(   0 ): 3.580E+14  Parms: SM      M1      
 Compute Stats, Diag. #    217  SIheff    vol(   0 ): 3.580E+14  Parms: SM      M1      
 Compute Stats, Diag. #    219  SIhsnow   vol(   0 ): 3.580E+14  Parms: SM      M1      
 Compute Stats, Diag. #     83  sIceLoad  vol(   0 ): 3.580E+14  Parms: SM      U1      
 Compute Stats, Diag. #    223  SIuice    vol(   0 ): 3.513E+14  Parms: UU      M1      
 Compute Stats, Diag. #    224  SIvice    vol(   0 ): 3.508E+14  Parms: VV      M1      
 Compute Stats, Diag. #    225  SItaux    vol(   0 ): 3.513E+14  Parms: UU      U1      
 Compute Stats, Diag. #    226  SItauy    vol(   0 ): 3.508E+14  Parms: VV      U1      
 cg2d: Sum(rhs),rhsMax =  -5.18850492560685E+01  2.98482173152320E-01
 Compute Stats, Diag. #    214  SIarea    vol(   0 ): 3.580E+14  Parms: SM      M1      
 Compute Stats, Diag. #    217  SIheff    vol(   0 ): 3.580E+14  Parms: SM      M1      
 Compute Stats, Diag. #    219  SIhsnow   vol(   0 ): 3.580E+14  Parms: SM      M1      
 Compute Stats, Diag. #     83  sIceLoad  vol(   0 ): 3.580E+14  Parms: SM      U1      
 Compute Stats, Diag. #    223  SIuice    vol(   0 ): 3.513E+14  Parms: UU      M1      
 Compute Stats, Diag. #    224  SIvice    vol(   0 ): 3.508E+14  Parms: VV      M1      
 Compute Stats, Diag. #    225  SItaux    vol(   0 ): 3.513E+14  Parms: UU      U1      
 Compute Stats, Diag. #    226  SItauy    vol(   0 ): 3.508E+14  Parms: VV      U1      
 cg2d: Sum(rhs),rhsMax =  -5.19469782060624E+01  2.98662555010986E-01
(PID.TID 0000.0001)      cg2d_init_res =   3.80215827049153E-02
(PID.TID 0000.0001)      cg2d_iters(min,last) =      -1      23
(PID.TID 0000.0001)      cg2d_last_res =   2.21927731186933E-05
(PID.TID 0000.0001) // =======================================================
(PID.TID 0000.0001) // Begin MONITOR dynamic field statistics
(PID.TID 0000.0001) // =======================================================
(PID.TID 0000.0001) %MON time_tsnumber                =                  1184
(PID.TID 0000.0001) %MON time_secondsf                =   1.0656000000000E+06
(PID.TID 0000.0001) %MON dynstat_eta_max              =   1.0154194874796E+00
(PID.TID 0000.0001) %MON dynstat_eta_min              =  -1.8397999708356E+00
(PID.TID 0000.0001) %MON dynstat_eta_mean             =   1.6432488282981E-03
(PID.TID 0000.0001) %MON dynstat_eta_sd               =   6.2541885139226E-01
(PID.TID 0000.0001) %MON dynstat_eta_del2             =   5.1939750670587E-05
(PID.TID 0000.0001) %MON dynstat_uvel_max             =   6.5280057281880E-01
(PID.TID 0000.0001) %MON dynstat_uvel_min             =  -9.2092610471275E-01
(PID.TID 0000.0001) %MON dynstat_uvel_mean            =   1.3836291076231E-03
(PID.TID 0000.0001) %MON dynstat_uvel_sd              =   1.7969767820854E-02
(PID.TID 0000.0001) %MON dynstat_uvel_del2            =   6.9874620021359E-06
(PID.TID 0000.0001) %MON dynstat_vvel_max             =   6.3860177624434E-01
(PID.TID 0000.0001) %MON dynstat_vvel_min             =  -1.0673529126202E+00
(PID.TID 0000.0001) %MON dynstat_vvel_mean            =   1.0637179634889E-03
(PID.TID 0000.0001) %MON dynstat_vvel_sd              =   1.9552263368309E-02
(PID.TID 0000.0001) %MON dynstat_vvel_del2            =   7.2905856813071E-06
(PID.TID 0000.0001) %MON dynstat_wvel_max             =   3.0823767058223E-04
(PID.TID 0000.0001) %MON dynstat_wvel_min             =  -7.6730558643792E-04
(PID.TID 0000.0001) %MON dynstat_wvel_mean            =   1.4531456762642E-09
(PID.TID 0000.0001) %MON dynstat_wvel_sd              =   1.6489029315165E-05
(PID.TID 0000.0001) %MON dynstat_wvel_del2            =   1.4315486328053E-08
(PID.TID 0000.0001) %MON dynstat_theta_max            =   3.1524420348837E+01
(PID.TID 0000.0001) %MON dynstat_theta_min            =  -2.0395507868565E+00
(PID.TID 0000.0001) %MON dynstat_theta_mean           =   3.5900884673803E+00
(PID.TID 0000.0001) %MON dynstat_theta_sd             =   4.4369297528182E+00
(PID.TID 0000.0001) %MON dynstat_theta_del2           =   8.9485881659183E-05
(PID.TID 0000.0001) %MON dynstat_salt_max             =   4.0711551110849E+01
(PID.TID 0000.0001) %MON dynstat_salt_min             =   6.8176677893674E+00
(PID.TID 0000.0001) %MON dynstat_salt_mean            =   3.4725557043891E+01
(PID.TID 0000.0001) %MON dynstat_salt_sd              =   3.7714210335014E-01
(PID.TID 0000.0001) %MON dynstat_salt_del2            =   3.5946035267208E-05
(PID.TID 0000.0001) %MON dynstat_sst_max              =   3.1524420348837E+01
(PID.TID 0000.0001) %MON dynstat_sst_min              =  -1.8032608807419E+00
(PID.TID 0000.0001) %MON dynstat_sst_mean             =   1.8448753509789E+01
(PID.TID 0000.0001) %MON dynstat_sst_sd               =   1.0308540355243E+01
(PID.TID 0000.0001) %MON dynstat_sst_del2             =   7.9172907431831E-04
(PID.TID 0000.0001) %MON dynstat_sss_max              =   3.9098023805039E+01
(PID.TID 0000.0001) %MON dynstat_sss_min              =   6.8176677893674E+00
(PID.TID 0000.0001) %MON dynstat_sss_mean             =   3.4701622840842E+01
(PID.TID 0000.0001) %MON dynstat_sss_sd               =   1.1861176922010E+00
(PID.TID 0000.0001) %MON dynstat_sss_del2             =   1.0707139019243E-03
(PID.TID 0000.0001) %MON forcing_qnet_max             =   8.0515173339844E+02
(PID.TID 0000.0001) %MON forcing_qnet_min             =  -9.3190121748253E+02
(PID.TID 0000.0001) %MON forcing_qnet_mean            =   2.6358830136973E+01
(PID.TID 0000.0001) %MON forcing_qnet_sd              =   1.7401379763246E+02
(PID.TID 0000.0001) %MON forcing_qnet_del2            =   3.2302121584501E-01
(PID.TID 0000.0001) %MON forcing_qsw_max              =   0.0000000000000E+00
(PID.TID 0000.0001) %MON forcing_qsw_min              =  -1.0865076075846E+02
(PID.TID 0000.0001) %MON forcing_qsw_mean             =  -1.6585409390259E+01
(PID.TID 0000.0001) %MON forcing_qsw_sd               =   2.6514030604261E+01
(PID.TID 0000.0001) %MON forcing_qsw_del2             =   2.1127239295390E-02
(PID.TID 0000.0001) %MON forcing_empmr_max            =   8.6805556202307E-04
(PID.TID 0000.0001) %MON forcing_empmr_min            =  -9.5028355717659E-02
(PID.TID 0000.0001) %MON forcing_empmr_mean           =  -2.2398019779467E-06
(PID.TID 0000.0001) %MON forcing_empmr_sd             =   3.2883671306489E-04
(PID.TID 0000.0001) %MON forcing_empmr_del2           =   4.7592606875414E-06
(PID.TID 0000.0001) %MON forcing_fu_max               =   8.1138172745705E-01
(PID.TID 0000.0001) %MON forcing_fu_min               =  -8.4016403555870E-01
(PID.TID 0000.0001) %MON forcing_fu_mean              =   5.2415239497284E-03
(PID.TID 0000.0001) %MON forcing_fu_sd                =   1.0887374993870E-01
(PID.TID 0000.0001) %MON forcing_fu_del2              =   1.3221402487796E-04
(PID.TID 0000.0001) %MON forcing_fv_max               =   6.0969582200050E-01
(PID.TID 0000.0001) %MON forcing_fv_min               =  -1.1103466153145E+00
(PID.TID 0000.0001) %MON forcing_fv_mean              =  -9.5617070939463E-03
(PID.TID 0000.0001) %MON forcing_fv_sd                =   1.1145516876973E-01
(PID.TID 0000.0001) %MON forcing_fv_del2              =   1.5869028298679E-04
(PID.TID 0000.0001) %MON trAdv_CFL_u_max              =   1.2061310694262E-02
(PID.TID 0000.0001) %MON trAdv_CFL_v_max              =   1.3813593457796E-02
(PID.TID 0000.0001) %MON trAdv_CFL_w_max              =   2.1510414150990E-02
(PID.TID 0000.0001) %MON advcfl_uvel_max              =   1.0385194339867E-02
(PID.TID 0000.0001) %MON advcfl_vvel_max              =   1.2844075660826E-02
(PID.TID 0000.0001) %MON advcfl_wvel_max              =   2.3673350900915E-02
(PID.TID 0000.0001) %MON advcfl_W_hf_max              =   2.4829250594743E-02
(PID.TID 0000.0001) %MON pe_b_mean                    =   5.1452089964175E-04
(PID.TID 0000.0001) %MON ke_max                       =   6.0197608491931E-01
(PID.TID 0000.0001) %MON ke_mean                      =   3.4151557005213E-04
(PID.TID 0000.0001) %MON ke_vol                       =   1.3349984645438E+18
(PID.TID 0000.0001) %MON vort_r_min                   =  -1.6943689314068E-05
(PID.TID 0000.0001) %MON vort_r_max                   =   1.9435464525504E-05
(PID.TID 0000.0001) %MON vort_a_mean                  =  -1.9727864647440E-05
(PID.TID 0000.0001) %MON vort_a_sd                    =   7.4542985995876E-05
(PID.TID 0000.0001) %MON vort_p_mean                  =  -2.1760524150548E-05
(PID.TID 0000.0001) %MON vort_p_sd                    =   9.7247339928371E-05
(PID.TID 0000.0001) %MON surfExpan_theta_mean         =   1.4428069991515E-07
(PID.TID 0000.0001) %MON surfExpan_salt_mean          =   3.5886251038280E-08
(PID.TID 0000.0001) // =======================================================
(PID.TID 0000.0001) // End MONITOR dynamic field statistics
(PID.TID 0000.0001) // =======================================================
(PID.TID 0000.0001) // =======================================================
(PID.TID 0000.0001) // Begin MONITOR SEAICE statistics
(PID.TID 0000.0001) // =======================================================
(PID.TID 0000.0001) %MON seaice_tsnumber              =                  1184
(PID.TID 0000.0001) %MON seaice_time_sec              =   1.0656000000000E+06
(PID.TID 0000.0001) %MON seaice_uice_max              =   4.0000000000000E-01
(PID.TID 0000.0001) %MON seaice_uice_min              =  -4.0000000000000E-01
(PID.TID 0000.0001) %MON seaice_uice_mean             =  -8.3054598624025E-03
(PID.TID 0000.0001) %MON seaice_uice_sd               =   1.9802383574176E-01
(PID.TID 0000.0001) %MON seaice_uice_del2             =   2.2931571122150E-04
(PID.TID 0000.0001) %MON seaice_vice_max              =   4.0000000000000E-01
(PID.TID 0000.0001) %MON seaice_vice_min              =  -4.0000000000000E-01
(PID.TID 0000.0001) %MON seaice_vice_mean             =  -2.1960776359499E-02
(PID.TID 0000.0001) %MON seaice_vice_sd               =   2.1302038025672E-01
(PID.TID 0000.0001) %MON seaice_vice_del2             =   2.3932563818061E-04
(PID.TID 0000.0001) %MON seaice_area_max              =   9.9999999813735E-01
(PID.TID 0000.0001) %MON seaice_area_min              =   0.0000000000000E+00
(PID.TID 0000.0001) %MON seaice_area_mean             =   6.4395436815765E-02
(PID.TID 0000.0001) %MON seaice_area_sd               =   2.2725383221700E-01
(PID.TID 0000.0001) %MON seaice_area_del2             =   3.7008484984805E-04
(PID.TID 0000.0001) %MON seaice_heff_max              =   2.4883757838979E+01
(PID.TID 0000.0001) %MON seaice_heff_min              =   0.0000000000000E+00
(PID.TID 0000.0001) %MON seaice_heff_mean             =   2.1126429915389E-01
(PID.TID 0000.0001) %MON seaice_heff_sd               =   1.0653799493021E+00
(PID.TID 0000.0001) %MON seaice_heff_del2             =   3.8085091952763E-03
(PID.TID 0000.0001) %MON seaice_hsnow_max             =   8.2190861329727E+00
(PID.TID 0000.0001) %MON seaice_hsnow_min             =   0.0000000000000E+00
(PID.TID 0000.0001) %MON seaice_hsnow_mean            =   2.3841551455038E-02
(PID.TID 0000.0001) %MON seaice_hsnow_sd              =   1.5569629166911E-01
(PID.TID 0000.0001) %MON seaice_hsnow_del2            =   1.2328793049912E-03
(PID.TID 0000.0001) // =======================================================
(PID.TID 0000.0001) // End MONITOR SEAICE statistics
(PID.TID 0000.0001) // =======================================================
 Computing Diagnostic #     86  oceQnet      Counter:       4   Parms: SM      U1      
 Computing Diagnostic #     87  oceQsw       Counter:       4   Parms: SM      U1      
 Computing Diagnostic #     84  oceFWflx     Counter:       4   Parms: SM      U1      
 Computing Diagnostic #     85  oceSflux     Counter:       4   Parms: SM      U1      
 Computing Diagnostic #     80  oceTAUX      Counter:       4   Parms: UU      U1      
           Vector  Mate for  oceTAUX      Diagnostic #     81  oceTAUY  exists 
 Computing Diagnostic #     81  oceTAUY      Counter:       4   Parms: VV      U1      
           Vector  Mate for  oceTAUY      Diagnostic #     80  oceTAUX  exists 
 Computing Diagnostic #     26  THETA        Counter:       4   Parms: SMR     MR      
 Computing Diagnostic #     27  SALT         Counter:       4   Parms: SMR     MR      
 Computing Diagnostic #     30  UVEL         Counter:       4   Parms: UUR     MR      
           Vector  Mate for  UVEL         Diagnostic #     31  VVEL     exists 
 Computing Diagnostic #     31  VVEL         Counter:       4   Parms: VVR     MR      
           Vector  Mate for  VVEL         Diagnostic #     30  UVEL     exists 
 Computing Diagnostic #    214  SIarea       Counter:       4   Parms: SM      M1      
 Computing Diagnostic #    217  SIheff       Counter:       4   Parms: SM      M1      
 Computing Diagnostic #    219  SIhsnow      Counter:       4   Parms: SM      M1      
 Computing Diagnostic #     83  sIceLoad     Counter:       4   Parms: SM      U1      
 Computing Diagnostic #    223  SIuice       Counter:       4   Parms: UU      M1      
           Vector  Mate for  SIuice       Diagnostic #    224  SIvice   exists 
 Computing Diagnostic #    224  SIvice       Counter:       4   Parms: VV      M1      
           Vector  Mate for  SIvice       Diagnostic #    223  SIuice   exists 
 Computing Diagnostic #    225  SItaux       Counter:       4   Parms: UU      U1      
           Vector  Mate for  SItaux       Diagnostic #    226  SItauy   exists 
 Computing Diagnostic #    226  SItauy       Counter:       4   Parms: VV      U1      
           Vector  Mate for  SItauy       Diagnostic #    225  SItaux   exists 
 Computing Diagnostic #    285  SIareaN      Counter:       4   Parms: SM      MX      
 Computing Diagnostic #    284  SIheffN      Counter:       4   Parms: SM      MX      
 Computing Diagnostic #    286  SIhsnowN     Counter:       4   Parms: SM      MX      
 Compute Stats, Diag. #    214  SIarea    vol(   0 ): 3.580E+14  Parms: SM      M1      
 Compute Stats, Diag. #    217  SIheff    vol(   0 ): 3.580E+14  Parms: SM      M1      
 Compute Stats, Diag. #    219  SIhsnow   vol(   0 ): 3.580E+14  Parms: SM      M1      
 Compute Stats, Diag. #     83  sIceLoad  vol(   0 ): 3.580E+14  Parms: SM      U1      
 Compute Stats, Diag. #    223  SIuice    vol(   0 ): 3.513E+14  Parms: UU      M1      
 Compute Stats, Diag. #    224  SIvice    vol(   0 ): 3.508E+14  Parms: VV      M1      
 Compute Stats, Diag. #    225  SItaux    vol(   0 ): 3.513E+14  Parms: UU      U1      
 Compute Stats, Diag. #    226  SItauy    vol(   0 ): 3.508E+14  Parms: VV      U1      
 cg2d: Sum(rhs),rhsMax =  -5.20103848906675E+01  2.98839778291832E-01
 Compute Stats, Diag. #    214  SIarea    vol(   0 ): 3.580E+14  Parms: SM      M1      
 Compute Stats, Diag. #    217  SIheff    vol(   0 ): 3.580E+14  Parms: SM      M1      
 Compute Stats, Diag. #    219  SIhsnow   vol(   0 ): 3.580E+14  Parms: SM      M1      
 Compute Stats, Diag. #     83  sIceLoad  vol(   0 ): 3.580E+14  Parms: SM      U1      
 Compute Stats, Diag. #    223  SIuice    vol(   0 ): 3.513E+14  Parms: UU      M1      
 Compute Stats, Diag. #    224  SIvice    vol(   0 ): 3.508E+14  Parms: VV      M1      
 Compute Stats, Diag. #    225  SItaux    vol(   0 ): 3.513E+14  Parms: UU      U1      
 Compute Stats, Diag. #    226  SItauy    vol(   0 ): 3.508E+14  Parms: VV      U1      
 cg2d: Sum(rhs),rhsMax =  -5.20759308956796E+01  2.99013716127300E-01
 Compute Stats, Diag. #    214  SIarea    vol(   0 ): 3.580E+14  Parms: SM      M1      
 Compute Stats, Diag. #    217  SIheff    vol(   0 ): 3.580E+14  Parms: SM      M1      
 Compute Stats, Diag. #    219  SIhsnow   vol(   0 ): 3.580E+14  Parms: SM      M1      
 Compute Stats, Diag. #     83  sIceLoad  vol(   0 ): 3.580E+14  Parms: SM      U1      
 Compute Stats, Diag. #    223  SIuice    vol(   0 ): 3.513E+14  Parms: UU      M1      
 Compute Stats, Diag. #    224  SIvice    vol(   0 ): 3.508E+14  Parms: VV      M1      
 Compute Stats, Diag. #    225  SItaux    vol(   0 ): 3.513E+14  Parms: UU      U1      
 Compute Stats, Diag. #    226  SItauy    vol(   0 ): 3.508E+14  Parms: VV      U1      
 cg2d: Sum(rhs),rhsMax =  -5.21474670200766E+01  2.99183165377606E-01
 Compute Stats, Diag. #    214  SIarea    vol(   0 ): 3.580E+14  Parms: SM      M1      
 Compute Stats, Diag. #    217  SIheff    vol(   0 ): 3.580E+14  Parms: SM      M1      
 Compute Stats, Diag. #    219  SIhsnow   vol(   0 ): 3.580E+14  Parms: SM      M1      
 Compute Stats, Diag. #     83  sIceLoad  vol(   0 ): 3.580E+14  Parms: SM      U1      
 Compute Stats, Diag. #    223  SIuice    vol(   0 ): 3.513E+14  Parms: UU      M1      
 Compute Stats, Diag. #    224  SIvice    vol(   0 ): 3.508E+14  Parms: VV      M1      
 Compute Stats, Diag. #    225  SItaux    vol(   0 ): 3.513E+14  Parms: UU      U1      
 Compute Stats, Diag. #    226  SItauy    vol(   0 ): 3.508E+14  Parms: VV      U1      
 cg2d: Sum(rhs),rhsMax =  -5.22166156618681E+01  2.99347807043888E-01
 Computing Diagnostic #     86  oceQnet      Counter:       4   Parms: SM      U1      
 Computing Diagnostic #     87  oceQsw       Counter:       4   Parms: SM      U1      
 Computing Diagnostic #     84  oceFWflx     Counter:       4   Parms: SM      U1      
 Computing Diagnostic #     85  oceSflux     Counter:       4   Parms: SM      U1      
 Computing Diagnostic #     80  oceTAUX      Counter:       4   Parms: UU      U1      
           Vector  Mate for  oceTAUX      Diagnostic #     81  oceTAUY  exists 
 Computing Diagnostic #     81  oceTAUY      Counter:       4   Parms: VV      U1      
           Vector  Mate for  oceTAUY      Diagnostic #     80  oceTAUX  exists 
 Computing Diagnostic #     26  THETA        Counter:       4   Parms: SMR     MR      
 Computing Diagnostic #     27  SALT         Counter:       4   Parms: SMR     MR      
 Computing Diagnostic #     30  UVEL         Counter:       4   Parms: UUR     MR      
           Vector  Mate for  UVEL         Diagnostic #     31  VVEL     exists 
 Computing Diagnostic #     31  VVEL         Counter:       4   Parms: VVR     MR      
           Vector  Mate for  VVEL         Diagnostic #     30  UVEL     exists 
 Computing Diagnostic #    214  SIarea       Counter:       4   Parms: SM      M1      
 Computing Diagnostic #    217  SIheff       Counter:       4   Parms: SM      M1      
 Computing Diagnostic #    219  SIhsnow      Counter:       4   Parms: SM      M1      
 Computing Diagnostic #     83  sIceLoad     Counter:       4   Parms: SM      U1      
 Computing Diagnostic #    223  SIuice       Counter:       4   Parms: UU      M1      
           Vector  Mate for  SIuice       Diagnostic #    224  SIvice   exists 
 Computing Diagnostic #    224  SIvice       Counter:       4   Parms: VV      M1      
           Vector  Mate for  SIvice       Diagnostic #    223  SIuice   exists 
 Computing Diagnostic #    225  SItaux       Counter:       4   Parms: UU      U1      
           Vector  Mate for  SItaux       Diagnostic #    226  SItauy   exists 
 Computing Diagnostic #    226  SItauy       Counter:       4   Parms: VV      U1      
           Vector  Mate for  SItauy       Diagnostic #    225  SItaux   exists 
 Computing Diagnostic #    285  SIareaN      Counter:       4   Parms: SM      MX      
 Computing Diagnostic #    284  SIheffN      Counter:       4   Parms: SM      MX      
 Computing Diagnostic #    286  SIhsnowN     Counter:       4   Parms: SM      MX      
 Compute Stats, Diag. #    214  SIarea    vol(   0 ): 3.580E+14  Parms: SM      M1      
 Compute Stats, Diag. #    217  SIheff    vol(   0 ): 3.580E+14  Parms: SM      M1      
 Compute Stats, Diag. #    219  SIhsnow   vol(   0 ): 3.580E+14  Parms: SM      M1      
 Compute Stats, Diag. #     83  sIceLoad  vol(   0 ): 3.580E+14  Parms: SM      U1      
 Compute Stats, Diag. #    223  SIuice    vol(   0 ): 3.513E+14  Parms: UU      M1      
 Compute Stats, Diag. #    224  SIvice    vol(   0 ): 3.508E+14  Parms: VV      M1      
 Compute Stats, Diag. #    225  SItaux    vol(   0 ): 3.513E+14  Parms: UU      U1      
 Compute Stats, Diag. #    226  SItauy    vol(   0 ): 3.508E+14  Parms: VV      U1      
 cg2d: Sum(rhs),rhsMax =  -5.22826143588223E+01  2.99509265551684E-01
 Compute Stats, Diag. #    214  SIarea    vol(   0 ): 3.580E+14  Parms: SM      M1      
 Compute Stats, Diag. #    217  SIheff    vol(   0 ): 3.580E+14  Parms: SM      M1      
 Compute Stats, Diag. #    219  SIhsnow   vol(   0 ): 3.580E+14  Parms: SM      M1      
 Compute Stats, Diag. #     83  sIceLoad  vol(   0 ): 3.580E+14  Parms: SM      U1      
 Compute Stats, Diag. #    223  SIuice    vol(   0 ): 3.513E+14  Parms: UU      M1      
 Compute Stats, Diag. #    224  SIvice    vol(   0 ): 3.508E+14  Parms: VV      M1      
 Compute Stats, Diag. #    225  SItaux    vol(   0 ): 3.513E+14  Parms: UU      U1      
 Compute Stats, Diag. #    226  SItauy    vol(   0 ): 3.508E+14  Parms: VV      U1      
 cg2d: Sum(rhs),rhsMax =  -5.23457556925789E+01  2.99663740863561E-01
 Compute Stats, Diag. #    214  SIarea    vol(   0 ): 3.580E+14  Parms: SM      M1      
 Compute Stats, Diag. #    217  SIheff    vol(   0 ): 3.580E+14  Parms: SM      M1      
 Compute Stats, Diag. #    219  SIhsnow   vol(   0 ): 3.580E+14  Parms: SM      M1      
 Compute Stats, Diag. #     83  sIceLoad  vol(   0 ): 3.580E+14  Parms: SM      U1      
 Compute Stats, Diag. #    223  SIuice    vol(   0 ): 3.513E+14  Parms: UU      M1      
 Compute Stats, Diag. #    224  SIvice    vol(   0 ): 3.508E+14  Parms: VV      M1      
 Compute Stats, Diag. #    225  SItaux    vol(   0 ): 3.513E+14  Parms: UU      U1      
 Compute Stats, Diag. #    226  SItauy    vol(   0 ): 3.508E+14  Parms: VV      U1      
 cg2d: Sum(rhs),rhsMax =  -5.24135166073279E+01  2.99810117402445E-01
 Compute Stats, Diag. #    214  SIarea    vol(   0 ): 3.580E+14  Parms: SM      M1      
 Compute Stats, Diag. #    217  SIheff    vol(   0 ): 3.580E+14  Parms: SM      M1      
 Compute Stats, Diag. #    219  SIhsnow   vol(   0 ): 3.580E+14  Parms: SM      M1      
 Compute Stats, Diag. #     83  sIceLoad  vol(   0 ): 3.580E+14  Parms: SM      U1      
 Compute Stats, Diag. #    223  SIuice    vol(   0 ): 3.513E+14  Parms: UU      M1      
 Compute Stats, Diag. #    224  SIvice    vol(   0 ): 3.508E+14  Parms: VV      M1      
 Compute Stats, Diag. #    225  SItaux    vol(   0 ): 3.513E+14  Parms: UU      U1      
 Compute Stats, Diag. #    226  SItauy    vol(   0 ): 3.508E+14  Parms: VV      U1      
 cg2d: Sum(rhs),rhsMax =  -5.24803582096096E+01  2.99947932663028E-01
(PID.TID 0000.0001)      cg2d_init_res =   3.66115101376415E-02
(PID.TID 0000.0001)      cg2d_iters(min,last) =      -1      23
(PID.TID 0000.0001)      cg2d_last_res =   2.16288381012580E-05
(PID.TID 0000.0001) // =======================================================
(PID.TID 0000.0001) // Begin MONITOR dynamic field statistics
(PID.TID 0000.0001) // =======================================================
(PID.TID 0000.0001) %MON time_tsnumber                =                  1192
(PID.TID 0000.0001) %MON time_secondsf                =   1.0728000000000E+06
(PID.TID 0000.0001) %MON dynstat_eta_max              =   1.0153289854212E+00
(PID.TID 0000.0001) %MON dynstat_eta_min              =  -1.8438739570570E+00
(PID.TID 0000.0001) %MON dynstat_eta_mean             =   1.6601213413129E-03
(PID.TID 0000.0001) %MON dynstat_eta_sd               =   6.2559501737896E-01
(PID.TID 0000.0001) %MON dynstat_eta_del2             =   5.1759327835689E-05
(PID.TID 0000.0001) %MON dynstat_uvel_max             =   6.4825622844386E-01
(PID.TID 0000.0001) %MON dynstat_uvel_min             =  -9.2008778714937E-01
(PID.TID 0000.0001) %MON dynstat_uvel_mean            =   1.3948893285089E-03
(PID.TID 0000.0001) %MON dynstat_uvel_sd              =   1.7960384904049E-02
(PID.TID 0000.0001) %MON dynstat_uvel_del2            =   6.9960311648357E-06
(PID.TID 0000.0001) %MON dynstat_vvel_max             =   6.3210397319574E-01
(PID.TID 0000.0001) %MON dynstat_vvel_min             =  -1.0640961158977E+00
(PID.TID 0000.0001) %MON dynstat_vvel_mean            =   1.0657664620915E-03
(PID.TID 0000.0001) %MON dynstat_vvel_sd              =   1.9545818855541E-02
(PID.TID 0000.0001) %MON dynstat_vvel_del2            =   7.3010032248788E-06
(PID.TID 0000.0001) %MON dynstat_wvel_max             =   3.0887876728005E-04
(PID.TID 0000.0001) %MON dynstat_wvel_min             =  -7.6387421548035E-04
(PID.TID 0000.0001) %MON dynstat_wvel_mean            =   1.8114843279139E-09
(PID.TID 0000.0001) %MON dynstat_wvel_sd              =   1.6603048208522E-05
(PID.TID 0000.0001) %MON dynstat_wvel_del2            =   1.4287908829461E-08
(PID.TID 0000.0001) %MON dynstat_theta_max            =   3.1527003607835E+01
(PID.TID 0000.0001) %MON dynstat_theta_min            =  -2.0395437593869E+00
(PID.TID 0000.0001) %MON dynstat_theta_mean           =   3.5900718470758E+00
(PID.TID 0000.0001) %MON dynstat_theta_sd             =   4.4368900656241E+00
(PID.TID 0000.0001) %MON dynstat_theta_del2           =   8.9450227689747E-05
(PID.TID 0000.0001) %MON dynstat_salt_max             =   4.0711551308404E+01
(PID.TID 0000.0001) %MON dynstat_salt_min             =   6.9815428329059E+00
(PID.TID 0000.0001) %MON dynstat_salt_mean            =   3.4725556905934E+01
(PID.TID 0000.0001) %MON dynstat_salt_sd              =   3.7714353582700E-01
(PID.TID 0000.0001) %MON dynstat_salt_del2            =   3.6195603642842E-05
(PID.TID 0000.0001) %MON dynstat_sst_max              =   3.1527003607835E+01
(PID.TID 0000.0001) %MON dynstat_sst_min              =  -1.8031417867219E+00
(PID.TID 0000.0001) %MON dynstat_sst_mean             =   1.8443749043682E+01
(PID.TID 0000.0001) %MON dynstat_sst_sd               =   1.0308939508498E+01
(PID.TID 0000.0001) %MON dynstat_sst_del2             =   7.9190732902834E-04
(PID.TID 0000.0001) %MON dynstat_sss_max              =   3.9098029570118E+01
(PID.TID 0000.0001) %MON dynstat_sss_min              =   6.9815428329059E+00
(PID.TID 0000.0001) %MON dynstat_sss_mean             =   3.4701610902288E+01
(PID.TID 0000.0001) %MON dynstat_sss_sd               =   1.1862785833658E+00
(PID.TID 0000.0001) %MON dynstat_sss_del2             =   1.0807404679656E-03
(PID.TID 0000.0001) %MON forcing_qnet_max             =   8.0677606201172E+02
(PID.TID 0000.0001) %MON forcing_qnet_min             =  -8.5392032723203E+02
(PID.TID 0000.0001) %MON forcing_qnet_mean            =   4.0391856188890E+01
(PID.TID 0000.0001) %MON forcing_qnet_sd              =   1.7781767714172E+02
(PID.TID 0000.0001) %MON forcing_qnet_del2            =   3.0658734191667E-01
(PID.TID 0000.0001) %MON forcing_qsw_max              =   0.0000000000000E+00
(PID.TID 0000.0001) %MON forcing_qsw_min              =  -1.0429752794431E+02
(PID.TID 0000.0001) %MON forcing_qsw_mean             =  -1.4386736496162E+01
(PID.TID 0000.0001) %MON forcing_qsw_sd               =   2.6378699615446E+01
(PID.TID 0000.0001) %MON forcing_qsw_del2             =   1.8563274256925E-02
(PID.TID 0000.0001) %MON forcing_empmr_max            =   7.8002933878452E-04
(PID.TID 0000.0001) %MON forcing_empmr_min            =  -6.6939607262611E-02
(PID.TID 0000.0001) %MON forcing_empmr_mean           =  -2.4174792727384E-06
(PID.TID 0000.0001) %MON forcing_empmr_sd             =   2.9875755271358E-04
(PID.TID 0000.0001) %MON forcing_empmr_del2           =   4.0280854395633E-06
(PID.TID 0000.0001) %MON forcing_fu_max               =   8.6472928524017E-01
(PID.TID 0000.0001) %MON forcing_fu_min               =  -7.9635840654373E-01
(PID.TID 0000.0001) %MON forcing_fu_mean              =   5.9032520664772E-03
(PID.TID 0000.0001) %MON forcing_fu_sd                =   1.1002746297079E-01
(PID.TID 0000.0001) %MON forcing_fu_del2              =   1.3353843378173E-04
(PID.TID 0000.0001) %MON forcing_fv_max               =   6.2408614158630E-01
(PID.TID 0000.0001) %MON forcing_fv_min               =  -1.0259166359901E+00
(PID.TID 0000.0001) %MON forcing_fv_mean              =  -9.9984008580704E-03
(PID.TID 0000.0001) %MON forcing_fv_sd                =   1.1344044317579E-01
(PID.TID 0000.0001) %MON forcing_fv_del2              =   1.6360474271515E-04
(PID.TID 0000.0001) %MON trAdv_CFL_u_max              =   1.2099343679621E-02
(PID.TID 0000.0001) %MON trAdv_CFL_v_max              =   1.3580090811481E-02
(PID.TID 0000.0001) %MON trAdv_CFL_w_max              =   2.1401812780731E-02
(PID.TID 0000.0001) %MON advcfl_uvel_max              =   1.0415065859364E-02
(PID.TID 0000.0001) %MON advcfl_vvel_max              =   1.2705460915975E-02
(PID.TID 0000.0001) %MON advcfl_wvel_max              =   2.3569782032066E-02
(PID.TID 0000.0001) %MON advcfl_W_hf_max              =   2.4720653017578E-02
(PID.TID 0000.0001) %MON pe_b_mean                    =   5.1481086668186E-04
(PID.TID 0000.0001) %MON ke_max                       =   6.0136156775202E-01
(PID.TID 0000.0001) %MON ke_mean                      =   3.4124870710001E-04
(PID.TID 0000.0001) %MON ke_vol                       =   1.3349984705288E+18
(PID.TID 0000.0001) %MON vort_r_min                   =  -1.6173873794662E-05
(PID.TID 0000.0001) %MON vort_r_max                   =   1.8488525964143E-05
(PID.TID 0000.0001) %MON vort_a_mean                  =  -1.9727864647440E-05
(PID.TID 0000.0001) %MON vort_a_sd                    =   7.4542986579992E-05
(PID.TID 0000.0001) %MON vort_p_mean                  =  -2.1760524070759E-05
(PID.TID 0000.0001) %MON vort_p_sd                    =   9.7247347971355E-05
(PID.TID 0000.0001) %MON surfExpan_theta_mean         =   1.5957693982892E-07
(PID.TID 0000.0001) %MON surfExpan_salt_mean          =   4.3626002343766E-08
(PID.TID 0000.0001) // =======================================================
(PID.TID 0000.0001) // End MONITOR dynamic field statistics
(PID.TID 0000.0001) // =======================================================
(PID.TID 0000.0001) // =======================================================
(PID.TID 0000.0001) // Begin MONITOR SEAICE statistics
(PID.TID 0000.0001) // =======================================================
(PID.TID 0000.0001) %MON seaice_tsnumber              =                  1192
(PID.TID 0000.0001) %MON seaice_time_sec              =   1.0728000000000E+06
(PID.TID 0000.0001) %MON seaice_uice_max              =   4.0000000000000E-01
(PID.TID 0000.0001) %MON seaice_uice_min              =  -4.0000000000000E-01
(PID.TID 0000.0001) %MON seaice_uice_mean             =  -8.3054598624025E-03
(PID.TID 0000.0001) %MON seaice_uice_sd               =   1.9802383574176E-01
(PID.TID 0000.0001) %MON seaice_uice_del2             =   2.2931571122150E-04
(PID.TID 0000.0001) %MON seaice_vice_max              =   4.0000000000000E-01
(PID.TID 0000.0001) %MON seaice_vice_min              =  -4.0000000000000E-01
(PID.TID 0000.0001) %MON seaice_vice_mean             =  -2.1960776359499E-02
(PID.TID 0000.0001) %MON seaice_vice_sd               =   2.1302038025672E-01
(PID.TID 0000.0001) %MON seaice_vice_del2             =   2.3932563818061E-04
(PID.TID 0000.0001) %MON seaice_area_max              =   9.9999999813735E-01
(PID.TID 0000.0001) %MON seaice_area_min              =   0.0000000000000E+00
(PID.TID 0000.0001) %MON seaice_area_mean             =   6.4368837298852E-02
(PID.TID 0000.0001) %MON seaice_area_sd               =   2.2720521010624E-01
(PID.TID 0000.0001) %MON seaice_area_del2             =   3.6986399302196E-04
(PID.TID 0000.0001) %MON seaice_heff_max              =   2.4882435287000E+01
(PID.TID 0000.0001) %MON seaice_heff_min              =   0.0000000000000E+00
(PID.TID 0000.0001) %MON seaice_heff_mean             =   2.1124355145942E-01
(PID.TID 0000.0001) %MON seaice_heff_sd               =   1.0653661480311E+00
(PID.TID 0000.0001) %MON seaice_heff_del2             =   3.8079776501853E-03
(PID.TID 0000.0001) %MON seaice_hsnow_max             =   8.2186450965819E+00
(PID.TID 0000.0001) %MON seaice_hsnow_min             =   0.0000000000000E+00
(PID.TID 0000.0001) %MON seaice_hsnow_mean            =   2.3844841781946E-02
(PID.TID 0000.0001) %MON seaice_hsnow_sd              =   1.5569135909075E-01
(PID.TID 0000.0001) %MON seaice_hsnow_del2            =   1.2327791913692E-03
(PID.TID 0000.0001) // =======================================================
(PID.TID 0000.0001) // End MONITOR SEAICE statistics
(PID.TID 0000.0001) // =======================================================
 Computing Diagnostic #     86  oceQnet      Counter:       4   Parms: SM      U1      
 Computing Diagnostic #     87  oceQsw       Counter:       4   Parms: SM      U1      
 Computing Diagnostic #     84  oceFWflx     Counter:       4   Parms: SM      U1      
 Computing Diagnostic #     85  oceSflux     Counter:       4   Parms: SM      U1      
 Computing Diagnostic #     80  oceTAUX      Counter:       4   Parms: UU      U1      
           Vector  Mate for  oceTAUX      Diagnostic #     81  oceTAUY  exists 
 Computing Diagnostic #     81  oceTAUY      Counter:       4   Parms: VV      U1      
           Vector  Mate for  oceTAUY      Diagnostic #     80  oceTAUX  exists 
 Computing Diagnostic #     26  THETA        Counter:       4   Parms: SMR     MR      
 Computing Diagnostic #     27  SALT         Counter:       4   Parms: SMR     MR      
 Computing Diagnostic #     30  UVEL         Counter:       4   Parms: UUR     MR      
           Vector  Mate for  UVEL         Diagnostic #     31  VVEL     exists 
 Computing Diagnostic #     31  VVEL         Counter:       4   Parms: VVR     MR      
           Vector  Mate for  VVEL         Diagnostic #     30  UVEL     exists 
 Computing Diagnostic #    214  SIarea       Counter:       4   Parms: SM      M1      
 Computing Diagnostic #    217  SIheff       Counter:       4   Parms: SM      M1      
 Computing Diagnostic #    219  SIhsnow      Counter:       4   Parms: SM      M1      
 Computing Diagnostic #     83  sIceLoad     Counter:       4   Parms: SM      U1      
 Computing Diagnostic #    223  SIuice       Counter:       4   Parms: UU      M1      
           Vector  Mate for  SIuice       Diagnostic #    224  SIvice   exists 
 Computing Diagnostic #    224  SIvice       Counter:       4   Parms: VV      M1      
           Vector  Mate for  SIvice       Diagnostic #    223  SIuice   exists 
 Computing Diagnostic #    225  SItaux       Counter:       4   Parms: UU      U1      
           Vector  Mate for  SItaux       Diagnostic #    226  SItauy   exists 
 Computing Diagnostic #    226  SItauy       Counter:       4   Parms: VV      U1      
           Vector  Mate for  SItauy       Diagnostic #    225  SItaux   exists 
 Computing Diagnostic #    285  SIareaN      Counter:       4   Parms: SM      MX      
 Computing Diagnostic #    284  SIheffN      Counter:       4   Parms: SM      MX      
 Computing Diagnostic #    286  SIhsnowN     Counter:       4   Parms: SM      MX      
 Compute Stats, Diag. #    214  SIarea    vol(   0 ): 3.580E+14  Parms: SM      M1      
 Compute Stats, Diag. #    217  SIheff    vol(   0 ): 3.580E+14  Parms: SM      M1      
 Compute Stats, Diag. #    219  SIhsnow   vol(   0 ): 3.580E+14  Parms: SM      M1      
 Compute Stats, Diag. #     83  sIceLoad  vol(   0 ): 3.580E+14  Parms: SM      U1      
 Compute Stats, Diag. #    223  SIuice    vol(   0 ): 3.513E+14  Parms: UU      M1      
 Compute Stats, Diag. #    224  SIvice    vol(   0 ): 3.508E+14  Parms: VV      M1      
 Compute Stats, Diag. #    225  SItaux    vol(   0 ): 3.513E+14  Parms: UU      U1      
 Compute Stats, Diag. #    226  SItauy    vol(   0 ): 3.508E+14  Parms: VV      U1      
 cg2d: Sum(rhs),rhsMax =  -5.25432791180769E+01  3.00077330873379E-01
 Compute Stats, Diag. #    214  SIarea    vol(   0 ): 3.580E+14  Parms: SM      M1      
 Compute Stats, Diag. #    217  SIheff    vol(   0 ): 3.580E+14  Parms: SM      M1      
 Compute Stats, Diag. #    219  SIhsnow   vol(   0 ): 3.580E+14  Parms: SM      M1      
 Compute Stats, Diag. #     83  sIceLoad  vol(   0 ): 3.580E+14  Parms: SM      U1      
 Compute Stats, Diag. #    223  SIuice    vol(   0 ): 3.513E+14  Parms: UU      M1      
 Compute Stats, Diag. #    224  SIvice    vol(   0 ): 3.508E+14  Parms: VV      M1      
 Compute Stats, Diag. #    225  SItaux    vol(   0 ): 3.513E+14  Parms: UU      U1      
 Compute Stats, Diag. #    226  SItauy    vol(   0 ): 3.508E+14  Parms: VV      U1      
 cg2d: Sum(rhs),rhsMax =  -5.26120920155714E+01  3.00197792159364E-01
 Compute Stats, Diag. #    214  SIarea    vol(   0 ): 3.580E+14  Parms: SM      M1      
 Compute Stats, Diag. #    217  SIheff    vol(   0 ): 3.580E+14  Parms: SM      M1      
 Compute Stats, Diag. #    219  SIhsnow   vol(   0 ): 3.580E+14  Parms: SM      M1      
 Compute Stats, Diag. #     83  sIceLoad  vol(   0 ): 3.580E+14  Parms: SM      U1      
 Compute Stats, Diag. #    223  SIuice    vol(   0 ): 3.513E+14  Parms: UU      M1      
 Compute Stats, Diag. #    224  SIvice    vol(   0 ): 3.508E+14  Parms: VV      M1      
 Compute Stats, Diag. #    225  SItaux    vol(   0 ): 3.513E+14  Parms: UU      U1      
 Compute Stats, Diag. #    226  SItauy    vol(   0 ): 3.508E+14  Parms: VV      U1      
 cg2d: Sum(rhs),rhsMax =  -5.26866614557476E+01  3.00308884833654E-01
 Compute Stats, Diag. #    214  SIarea    vol(   0 ): 3.580E+14  Parms: SM      M1      
 Compute Stats, Diag. #    217  SIheff    vol(   0 ): 3.580E+14  Parms: SM      M1      
 Compute Stats, Diag. #    219  SIhsnow   vol(   0 ): 3.580E+14  Parms: SM      M1      
 Compute Stats, Diag. #     83  sIceLoad  vol(   0 ): 3.580E+14  Parms: SM      U1      
 Compute Stats, Diag. #    223  SIuice    vol(   0 ): 3.513E+14  Parms: UU      M1      
 Compute Stats, Diag. #    224  SIvice    vol(   0 ): 3.508E+14  Parms: VV      M1      
 Compute Stats, Diag. #    225  SItaux    vol(   0 ): 3.513E+14  Parms: UU      U1      
 Compute Stats, Diag. #    226  SItauy    vol(   0 ): 3.508E+14  Parms: VV      U1      
 cg2d: Sum(rhs),rhsMax =  -5.27619153884553E+01  3.00409508575974E-01
 Computing Diagnostic #     86  oceQnet      Counter:       4   Parms: SM      U1      
 Computing Diagnostic #     87  oceQsw       Counter:       4   Parms: SM      U1      
 Computing Diagnostic #     84  oceFWflx     Counter:       4   Parms: SM      U1      
 Computing Diagnostic #     85  oceSflux     Counter:       4   Parms: SM      U1      
 Computing Diagnostic #     80  oceTAUX      Counter:       4   Parms: UU      U1      
           Vector  Mate for  oceTAUX      Diagnostic #     81  oceTAUY  exists 
 Computing Diagnostic #     81  oceTAUY      Counter:       4   Parms: VV      U1      
           Vector  Mate for  oceTAUY      Diagnostic #     80  oceTAUX  exists 
 Computing Diagnostic #     26  THETA        Counter:       4   Parms: SMR     MR      
 Computing Diagnostic #     27  SALT         Counter:       4   Parms: SMR     MR      
 Computing Diagnostic #     30  UVEL         Counter:       4   Parms: UUR     MR      
           Vector  Mate for  UVEL         Diagnostic #     31  VVEL     exists 
 Computing Diagnostic #     31  VVEL         Counter:       4   Parms: VVR     MR      
           Vector  Mate for  VVEL         Diagnostic #     30  UVEL     exists 
 Computing Diagnostic #    214  SIarea       Counter:       4   Parms: SM      M1      
 Computing Diagnostic #    217  SIheff       Counter:       4   Parms: SM      M1      
 Computing Diagnostic #    219  SIhsnow      Counter:       4   Parms: SM      M1      
 Computing Diagnostic #     83  sIceLoad     Counter:       4   Parms: SM      U1      
 Computing Diagnostic #    223  SIuice       Counter:       4   Parms: UU      M1      
           Vector  Mate for  SIuice       Diagnostic #    224  SIvice   exists 
 Computing Diagnostic #    224  SIvice       Counter:       4   Parms: VV      M1      
           Vector  Mate for  SIvice       Diagnostic #    223  SIuice   exists 
 Computing Diagnostic #    225  SItaux       Counter:       4   Parms: UU      U1      
           Vector  Mate for  SItaux       Diagnostic #    226  SItauy   exists 
 Computing Diagnostic #    226  SItauy       Counter:       4   Parms: VV      U1      
           Vector  Mate for  SItauy       Diagnostic #    225  SItaux   exists 
 Computing Diagnostic #    285  SIareaN      Counter:       4   Parms: SM      MX      
 Computing Diagnostic #    284  SIheffN      Counter:       4   Parms: SM      MX      
 Computing Diagnostic #    286  SIhsnowN     Counter:       4   Parms: SM      MX      
 Compute Stats, Diag. #    214  SIarea    vol(   0 ): 3.580E+14  Parms: SM      M1      
 Compute Stats, Diag. #    217  SIheff    vol(   0 ): 3.580E+14  Parms: SM      M1      
 Compute Stats, Diag. #    219  SIhsnow   vol(   0 ): 3.580E+14  Parms: SM      M1      
 Compute Stats, Diag. #     83  sIceLoad  vol(   0 ): 3.580E+14  Parms: SM      U1      
 Compute Stats, Diag. #    223  SIuice    vol(   0 ): 3.513E+14  Parms: UU      M1      
 Compute Stats, Diag. #    224  SIvice    vol(   0 ): 3.508E+14  Parms: VV      M1      
 Compute Stats, Diag. #    225  SItaux    vol(   0 ): 3.513E+14  Parms: UU      U1      
 Compute Stats, Diag. #    226  SItauy    vol(   0 ): 3.508E+14  Parms: VV      U1      
 cg2d: Sum(rhs),rhsMax =  -5.28342020692489E+01  3.00499822651665E-01
 Compute Stats, Diag. #    214  SIarea    vol(   0 ): 3.580E+14  Parms: SM      M1      
 Compute Stats, Diag. #    217  SIheff    vol(   0 ): 3.580E+14  Parms: SM      M1      
 Compute Stats, Diag. #    219  SIhsnow   vol(   0 ): 3.580E+14  Parms: SM      M1      
 Compute Stats, Diag. #     83  sIceLoad  vol(   0 ): 3.580E+14  Parms: SM      U1      
 Compute Stats, Diag. #    223  SIuice    vol(   0 ): 3.513E+14  Parms: UU      M1      
 Compute Stats, Diag. #    224  SIvice    vol(   0 ): 3.508E+14  Parms: VV      M1      
 Compute Stats, Diag. #    225  SItaux    vol(   0 ): 3.513E+14  Parms: UU      U1      
 Compute Stats, Diag. #    226  SItauy    vol(   0 ): 3.508E+14  Parms: VV      U1      
 cg2d: Sum(rhs),rhsMax =  -5.29084677702223E+01  3.00580474511823E-01
 Compute Stats, Diag. #    214  SIarea    vol(   0 ): 3.580E+14  Parms: SM      M1      
 Compute Stats, Diag. #    217  SIheff    vol(   0 ): 3.580E+14  Parms: SM      M1      
 Compute Stats, Diag. #    219  SIhsnow   vol(   0 ): 3.580E+14  Parms: SM      M1      
 Compute Stats, Diag. #     83  sIceLoad  vol(   0 ): 3.580E+14  Parms: SM      U1      
 Compute Stats, Diag. #    223  SIuice    vol(   0 ): 3.513E+14  Parms: UU      M1      
 Compute Stats, Diag. #    224  SIvice    vol(   0 ): 3.508E+14  Parms: VV      M1      
 Compute Stats, Diag. #    225  SItaux    vol(   0 ): 3.513E+14  Parms: UU      U1      
 Compute Stats, Diag. #    226  SItauy    vol(   0 ): 3.508E+14  Parms: VV      U1      
 cg2d: Sum(rhs),rhsMax =  -5.29840329076290E+01  3.00651573259015E-01
 Compute Stats, Diag. #    214  SIarea    vol(   0 ): 3.580E+14  Parms: SM      M1      
 Compute Stats, Diag. #    217  SIheff    vol(   0 ): 3.580E+14  Parms: SM      M1      
 Compute Stats, Diag. #    219  SIhsnow   vol(   0 ): 3.580E+14  Parms: SM      M1      
 Compute Stats, Diag. #     83  sIceLoad  vol(   0 ): 3.580E+14  Parms: SM      U1      
 Compute Stats, Diag. #    223  SIuice    vol(   0 ): 3.513E+14  Parms: UU      M1      
 Compute Stats, Diag. #    224  SIvice    vol(   0 ): 3.508E+14  Parms: VV      M1      
 Compute Stats, Diag. #    225  SItaux    vol(   0 ): 3.513E+14  Parms: UU      U1      
 Compute Stats, Diag. #    226  SItauy    vol(   0 ): 3.508E+14  Parms: VV      U1      
 cg2d: Sum(rhs),rhsMax =  -5.30663453026410E+01  3.00714716093745E-01
(PID.TID 0000.0001)      cg2d_init_res =   3.50144437424340E-02
(PID.TID 0000.0001)      cg2d_iters(min,last) =      -1      22
(PID.TID 0000.0001)      cg2d_last_res =   2.69394382924779E-05
(PID.TID 0000.0001) // =======================================================
(PID.TID 0000.0001) // Begin MONITOR dynamic field statistics
(PID.TID 0000.0001) // =======================================================
(PID.TID 0000.0001) %MON time_tsnumber                =                  1200
(PID.TID 0000.0001) %MON time_secondsf                =   1.0800000000000E+06
(PID.TID 0000.0001) %MON dynstat_eta_max              =   1.0153362621512E+00
(PID.TID 0000.0001) %MON dynstat_eta_min              =  -1.8477190457166E+00
(PID.TID 0000.0001) %MON dynstat_eta_mean             =   1.6786579845841E-03
(PID.TID 0000.0001) %MON dynstat_eta_sd               =   6.2573798097726E-01
(PID.TID 0000.0001) %MON dynstat_eta_del2             =   5.1539732543696E-05
(PID.TID 0000.0001) %MON dynstat_uvel_max             =   6.4658915616189E-01
(PID.TID 0000.0001) %MON dynstat_uvel_min             =  -9.1659701312870E-01
(PID.TID 0000.0001) %MON dynstat_uvel_mean            =   1.3999461231563E-03
(PID.TID 0000.0001) %MON dynstat_uvel_sd              =   1.7957117312558E-02
(PID.TID 0000.0001) %MON dynstat_uvel_del2            =   7.0085853657351E-06
(PID.TID 0000.0001) %MON dynstat_vvel_max             =   6.3226415191842E-01
(PID.TID 0000.0001) %MON dynstat_vvel_min             =  -1.0593897782671E+00
(PID.TID 0000.0001) %MON dynstat_vvel_mean            =   1.0650063594240E-03
(PID.TID 0000.0001) %MON dynstat_vvel_sd              =   1.9541468143240E-02
(PID.TID 0000.0001) %MON dynstat_vvel_del2            =   7.3151179230330E-06
(PID.TID 0000.0001) %MON dynstat_wvel_max             =   3.1454313327569E-04
(PID.TID 0000.0001) %MON dynstat_wvel_min             =  -7.6104064056330E-04
(PID.TID 0000.0001) %MON dynstat_wvel_mean            =   2.9396164905042E-09
(PID.TID 0000.0001) %MON dynstat_wvel_sd              =   1.6732070955080E-05
(PID.TID 0000.0001) %MON dynstat_wvel_del2            =   1.4281186964238E-08
(PID.TID 0000.0001) %MON dynstat_theta_max            =   3.1506879145299E+01
(PID.TID 0000.0001) %MON dynstat_theta_min            =  -2.0395364154067E+00
(PID.TID 0000.0001) %MON dynstat_theta_mean           =   3.5900522768949E+00
(PID.TID 0000.0001) %MON dynstat_theta_sd             =   4.4368342339301E+00
(PID.TID 0000.0001) %MON dynstat_theta_del2           =   8.9414947937133E-05
(PID.TID 0000.0001) %MON dynstat_salt_max             =   4.0711551556579E+01
(PID.TID 0000.0001) %MON dynstat_salt_min             =   7.1224728955522E+00
(PID.TID 0000.0001) %MON dynstat_salt_mean            =   3.4725556740230E+01
(PID.TID 0000.0001) %MON dynstat_salt_sd              =   3.7714471727506E-01
(PID.TID 0000.0001) %MON dynstat_salt_del2            =   3.6331955782188E-05
(PID.TID 0000.0001) %MON dynstat_sst_max              =   3.1506879145299E+01
(PID.TID 0000.0001) %MON dynstat_sst_min              =  -1.8036155878651E+00
(PID.TID 0000.0001) %MON dynstat_sst_mean             =   1.8438963501107E+01
(PID.TID 0000.0001) %MON dynstat_sst_sd               =   1.0309259267433E+01
(PID.TID 0000.0001) %MON dynstat_sst_del2             =   7.9113690653326E-04
(PID.TID 0000.0001) %MON dynstat_sss_max              =   3.9098019626751E+01
(PID.TID 0000.0001) %MON dynstat_sss_min              =   7.1224728955522E+00
(PID.TID 0000.0001) %MON dynstat_sss_mean             =   3.4701617630747E+01
(PID.TID 0000.0001) %MON dynstat_sss_sd               =   1.1864418079838E+00
(PID.TID 0000.0001) %MON dynstat_sss_del2             =   1.0850382521809E-03
(PID.TID 0000.0001) %MON forcing_qnet_max             =   8.2004187011719E+02
(PID.TID 0000.0001) %MON forcing_qnet_min             =  -7.5449645996094E+02
(PID.TID 0000.0001) %MON forcing_qnet_mean            =   3.9611657338712E+01
(PID.TID 0000.0001) %MON forcing_qnet_sd              =   1.7316514118317E+02
(PID.TID 0000.0001) %MON forcing_qnet_del2            =   3.1467754749936E-01
(PID.TID 0000.0001) %MON forcing_qsw_max              =   0.0000000000000E+00
(PID.TID 0000.0001) %MON forcing_qsw_min              =  -1.0912937618908E+02
(PID.TID 0000.0001) %MON forcing_qsw_mean             =  -1.3458882216195E+01
(PID.TID 0000.0001) %MON forcing_qsw_sd               =   2.4707927732300E+01
(PID.TID 0000.0001) %MON forcing_qsw_del2             =   1.8205517362111E-02
(PID.TID 0000.0001) %MON forcing_empmr_max            =   9.2081708135083E-04
(PID.TID 0000.0001) %MON forcing_empmr_min            =  -5.0945185124874E-02
(PID.TID 0000.0001) %MON forcing_empmr_mean           =  -2.9770158410432E-06
(PID.TID 0000.0001) %MON forcing_empmr_sd             =   2.6489798327645E-04
(PID.TID 0000.0001) %MON forcing_empmr_del2           =   3.3419329207980E-06
(PID.TID 0000.0001) %MON forcing_fu_max               =   9.1639488935470E-01
(PID.TID 0000.0001) %MON forcing_fu_min               =  -6.8743139505386E-01
(PID.TID 0000.0001) %MON forcing_fu_mean              =   5.9481523830771E-03
(PID.TID 0000.0001) %MON forcing_fu_sd                =   1.1117850467880E-01
(PID.TID 0000.0001) %MON forcing_fu_del2              =   1.3520531549707E-04
(PID.TID 0000.0001) %MON forcing_fv_max               =   7.7923682332039E-01
(PID.TID 0000.0001) %MON forcing_fv_min               =  -9.3299505114555E-01
(PID.TID 0000.0001) %MON forcing_fv_mean              =  -9.5871240817238E-03
(PID.TID 0000.0001) %MON forcing_fv_sd                =   1.1481862225475E-01
(PID.TID 0000.0001) %MON forcing_fv_del2              =   1.6389543330897E-04
(PID.TID 0000.0001) %MON trAdv_CFL_u_max              =   1.2151630524957E-02
(PID.TID 0000.0001) %MON trAdv_CFL_v_max              =   1.3414486484749E-02
(PID.TID 0000.0001) %MON trAdv_CFL_w_max              =   2.1285902686373E-02
(PID.TID 0000.0001) %MON advcfl_uvel_max              =   1.0461573509961E-02
(PID.TID 0000.0001) %MON advcfl_vvel_max              =   1.2651783592006E-02
(PID.TID 0000.0001) %MON advcfl_wvel_max              =   2.3459281412074E-02
(PID.TID 0000.0001) %MON advcfl_W_hf_max              =   2.4604740752305E-02
(PID.TID 0000.0001) %MON pe_b_mean                    =   5.1504626430568E-04
(PID.TID 0000.0001) %MON ke_max                       =   5.9842161422083E-01
(PID.TID 0000.0001) %MON ke_mean                      =   3.4111613826306E-04
(PID.TID 0000.0001) %MON ke_vol                       =   1.3349984769899E+18
(PID.TID 0000.0001) %MON vort_r_min                   =  -1.5427539019122E-05
(PID.TID 0000.0001) %MON vort_r_max                   =   1.7685455363130E-05
(PID.TID 0000.0001) %MON vort_a_mean                  =  -1.9727864647440E-05
(PID.TID 0000.0001) %MON vort_a_sd                    =   7.4542986183159E-05
(PID.TID 0000.0001) %MON vort_p_mean                  =  -2.1760523992263E-05
(PID.TID 0000.0001) %MON vort_p_sd                    =   9.7247357344304E-05
(PID.TID 0000.0001) %MON surfExpan_theta_mean         =   1.4630231963854E-07
(PID.TID 0000.0001) %MON surfExpan_salt_mean          =   4.6697270625461E-08
(PID.TID 0000.0001) // =======================================================
(PID.TID 0000.0001) // End MONITOR dynamic field statistics
(PID.TID 0000.0001) // =======================================================
(PID.TID 0000.0001) // =======================================================
(PID.TID 0000.0001) // Begin MONITOR SEAICE statistics
(PID.TID 0000.0001) // =======================================================
(PID.TID 0000.0001) %MON seaice_tsnumber              =                  1200
(PID.TID 0000.0001) %MON seaice_time_sec              =   1.0800000000000E+06
(PID.TID 0000.0001) %MON seaice_uice_max              =   4.0000000000000E-01
(PID.TID 0000.0001) %MON seaice_uice_min              =  -4.0000000000000E-01
(PID.TID 0000.0001) %MON seaice_uice_mean             =  -8.3054598624025E-03
(PID.TID 0000.0001) %MON seaice_uice_sd               =   1.9802383574176E-01
(PID.TID 0000.0001) %MON seaice_uice_del2             =   2.2931571122150E-04
(PID.TID 0000.0001) %MON seaice_vice_max              =   4.0000000000000E-01
(PID.TID 0000.0001) %MON seaice_vice_min              =  -4.0000000000000E-01
(PID.TID 0000.0001) %MON seaice_vice_mean             =  -2.1960776359499E-02
(PID.TID 0000.0001) %MON seaice_vice_sd               =   2.1302038025672E-01
(PID.TID 0000.0001) %MON seaice_vice_del2             =   2.3932563818061E-04
(PID.TID 0000.0001) %MON seaice_area_max              =   9.9999999813735E-01
(PID.TID 0000.0001) %MON seaice_area_min              =   0.0000000000000E+00
(PID.TID 0000.0001) %MON seaice_area_mean             =   6.4346442487441E-02
(PID.TID 0000.0001) %MON seaice_area_sd               =   2.2716363873501E-01
(PID.TID 0000.0001) %MON seaice_area_del2             =   3.6966034283437E-04
(PID.TID 0000.0001) %MON seaice_heff_max              =   2.4881132159033E+01
(PID.TID 0000.0001) %MON seaice_heff_min              =   0.0000000000000E+00
(PID.TID 0000.0001) %MON seaice_heff_mean             =   2.1122483036458E-01
(PID.TID 0000.0001) %MON seaice_heff_sd               =   1.0653528410831E+00
(PID.TID 0000.0001) %MON seaice_heff_del2             =   3.8074486027500E-03
(PID.TID 0000.0001) %MON seaice_hsnow_max             =   8.2182112039009E+00
(PID.TID 0000.0001) %MON seaice_hsnow_min             =   0.0000000000000E+00
(PID.TID 0000.0001) %MON seaice_hsnow_mean            =   2.3848874602108E-02
(PID.TID 0000.0001) %MON seaice_hsnow_sd              =   1.5568640605722E-01
(PID.TID 0000.0001) %MON seaice_hsnow_del2            =   1.2326843902422E-03
(PID.TID 0000.0001) // =======================================================
(PID.TID 0000.0001) // End MONITOR SEAICE statistics
(PID.TID 0000.0001) // =======================================================
 Computing Diagnostic #     86  oceQnet      Counter:       4   Parms: SM      U1      
 Computing Diagnostic #     87  oceQsw       Counter:       4   Parms: SM      U1      
 Computing Diagnostic #     84  oceFWflx     Counter:       4   Parms: SM      U1      
 Computing Diagnostic #     85  oceSflux     Counter:       4   Parms: SM      U1      
 Computing Diagnostic #     80  oceTAUX      Counter:       4   Parms: UU      U1      
           Vector  Mate for  oceTAUX      Diagnostic #     81  oceTAUY  exists 
 Computing Diagnostic #     81  oceTAUY      Counter:       4   Parms: VV      U1      
           Vector  Mate for  oceTAUY      Diagnostic #     80  oceTAUX  exists 
 Computing Diagnostic #     26  THETA        Counter:       4   Parms: SMR     MR      
 Computing Diagnostic #     27  SALT         Counter:       4   Parms: SMR     MR      
 Computing Diagnostic #     30  UVEL         Counter:       4   Parms: UUR     MR      
           Vector  Mate for  UVEL         Diagnostic #     31  VVEL     exists 
 Computing Diagnostic #     31  VVEL         Counter:       4   Parms: VVR     MR      
           Vector  Mate for  VVEL         Diagnostic #     30  UVEL     exists 
 Computing Diagnostic #    214  SIarea       Counter:       4   Parms: SM      M1      
 Computing Diagnostic #    217  SIheff       Counter:       4   Parms: SM      M1      
 Computing Diagnostic #    219  SIhsnow      Counter:       4   Parms: SM      M1      
 Computing Diagnostic #     83  sIceLoad     Counter:       4   Parms: SM      U1      
 Computing Diagnostic #    223  SIuice       Counter:       4   Parms: UU      M1      
           Vector  Mate for  SIuice       Diagnostic #    224  SIvice   exists 
 Computing Diagnostic #    224  SIvice       Counter:       4   Parms: VV      M1      
           Vector  Mate for  SIvice       Diagnostic #    223  SIuice   exists 
 Computing Diagnostic #    225  SItaux       Counter:       4   Parms: UU      U1      
           Vector  Mate for  SItaux       Diagnostic #    226  SItauy   exists 
 Computing Diagnostic #    226  SItauy       Counter:       4   Parms: VV      U1      
           Vector  Mate for  SItauy       Diagnostic #    225  SItaux   exists 
 Computing Diagnostic #    285  SIareaN      Counter:       4   Parms: SM      MX      
 Computing Diagnostic #    284  SIheffN      Counter:       4   Parms: SM      MX      
 Computing Diagnostic #    286  SIhsnowN     Counter:       4   Parms: SM      MX      
 Compute Stats, Diag. #    214  SIarea    vol(   0 ): 3.580E+14  Parms: SM      M1      
 Compute Stats, Diag. #    217  SIheff    vol(   0 ): 3.580E+14  Parms: SM      M1      
 Compute Stats, Diag. #    219  SIhsnow   vol(   0 ): 3.580E+14  Parms: SM      M1      
 Compute Stats, Diag. #     83  sIceLoad  vol(   0 ): 3.580E+14  Parms: SM      U1      
 Compute Stats, Diag. #    223  SIuice    vol(   0 ): 3.513E+14  Parms: UU      M1      
 Compute Stats, Diag. #    224  SIvice    vol(   0 ): 3.508E+14  Parms: VV      M1      
 Compute Stats, Diag. #    225  SItaux    vol(   0 ): 3.513E+14  Parms: UU      U1      
 Compute Stats, Diag. #    226  SItauy    vol(   0 ): 3.508E+14  Parms: VV      U1      
 cg2d: Sum(rhs),rhsMax =  -5.31469647879877E+01  3.00764667667404E-01
 Compute Stats, Diag. #    214  SIarea    vol(   0 ): 3.580E+14  Parms: SM      M1      
 Compute Stats, Diag. #    217  SIheff    vol(   0 ): 3.580E+14  Parms: SM      M1      
 Compute Stats, Diag. #    219  SIhsnow   vol(   0 ): 3.580E+14  Parms: SM      M1      
 Compute Stats, Diag. #     83  sIceLoad  vol(   0 ): 3.580E+14  Parms: SM      U1      
 Compute Stats, Diag. #    223  SIuice    vol(   0 ): 3.513E+14  Parms: UU      M1      
 Compute Stats, Diag. #    224  SIvice    vol(   0 ): 3.508E+14  Parms: VV      M1      
 Compute Stats, Diag. #    225  SItaux    vol(   0 ): 3.513E+14  Parms: UU      U1      
 Compute Stats, Diag. #    226  SItauy    vol(   0 ): 3.508E+14  Parms: VV      U1      
 cg2d: Sum(rhs),rhsMax =  -5.32248434055604E+01  3.00806904659014E-01
 Compute Stats, Diag. #    214  SIarea    vol(   0 ): 3.580E+14  Parms: SM      M1      
 Compute Stats, Diag. #    217  SIheff    vol(   0 ): 3.580E+14  Parms: SM      M1      
 Compute Stats, Diag. #    219  SIhsnow   vol(   0 ): 3.580E+14  Parms: SM      M1      
 Compute Stats, Diag. #     83  sIceLoad  vol(   0 ): 3.580E+14  Parms: SM      U1      
 Compute Stats, Diag. #    223  SIuice    vol(   0 ): 3.513E+14  Parms: UU      M1      
 Compute Stats, Diag. #    224  SIvice    vol(   0 ): 3.508E+14  Parms: VV      M1      
 Compute Stats, Diag. #    225  SItaux    vol(   0 ): 3.513E+14  Parms: UU      U1      
 Compute Stats, Diag. #    226  SItauy    vol(   0 ): 3.508E+14  Parms: VV      U1      
 cg2d: Sum(rhs),rhsMax =  -5.32994083788924E+01  3.00838781057541E-01
 Compute Stats, Diag. #    214  SIarea    vol(   0 ): 3.580E+14  Parms: SM      M1      
 Compute Stats, Diag. #    217  SIheff    vol(   0 ): 3.580E+14  Parms: SM      M1      
 Compute Stats, Diag. #    219  SIhsnow   vol(   0 ): 3.580E+14  Parms: SM      M1      
 Compute Stats, Diag. #     83  sIceLoad  vol(   0 ): 3.580E+14  Parms: SM      U1      
 Compute Stats, Diag. #    223  SIuice    vol(   0 ): 3.513E+14  Parms: UU      M1      
 Compute Stats, Diag. #    224  SIvice    vol(   0 ): 3.508E+14  Parms: VV      M1      
 Compute Stats, Diag. #    225  SItaux    vol(   0 ): 3.513E+14  Parms: UU      U1      
 Compute Stats, Diag. #    226  SItauy    vol(   0 ): 3.508E+14  Parms: VV      U1      
 cg2d: Sum(rhs),rhsMax =  -5.33724667651499E+01  3.00860499756983E-01
 Computing Diagnostic #     86  oceQnet      Counter:       4   Parms: SM      U1      
 Computing Diagnostic #     87  oceQsw       Counter:       4   Parms: SM      U1      
 Computing Diagnostic #     84  oceFWflx     Counter:       4   Parms: SM      U1      
 Computing Diagnostic #     85  oceSflux     Counter:       4   Parms: SM      U1      
 Computing Diagnostic #     80  oceTAUX      Counter:       4   Parms: UU      U1      
           Vector  Mate for  oceTAUX      Diagnostic #     81  oceTAUY  exists 
 Computing Diagnostic #     81  oceTAUY      Counter:       4   Parms: VV      U1      
           Vector  Mate for  oceTAUY      Diagnostic #     80  oceTAUX  exists 
 Computing Diagnostic #     26  THETA        Counter:       4   Parms: SMR     MR      
 Computing Diagnostic #     27  SALT         Counter:       4   Parms: SMR     MR      
 Computing Diagnostic #     30  UVEL         Counter:       4   Parms: UUR     MR      
           Vector  Mate for  UVEL         Diagnostic #     31  VVEL     exists 
 Computing Diagnostic #     31  VVEL         Counter:       4   Parms: VVR     MR      
           Vector  Mate for  VVEL         Diagnostic #     30  UVEL     exists 
 Computing Diagnostic #    214  SIarea       Counter:       4   Parms: SM      M1      
 Computing Diagnostic #    217  SIheff       Counter:       4   Parms: SM      M1      
 Computing Diagnostic #    219  SIhsnow      Counter:       4   Parms: SM      M1      
 Computing Diagnostic #     83  sIceLoad     Counter:       4   Parms: SM      U1      
 Computing Diagnostic #    223  SIuice       Counter:       4   Parms: UU      M1      
           Vector  Mate for  SIuice       Diagnostic #    224  SIvice   exists 
 Computing Diagnostic #    224  SIvice       Counter:       4   Parms: VV      M1      
           Vector  Mate for  SIvice       Diagnostic #    223  SIuice   exists 
 Computing Diagnostic #    225  SItaux       Counter:       4   Parms: UU      U1      
           Vector  Mate for  SItaux       Diagnostic #    226  SItauy   exists 
 Computing Diagnostic #    226  SItauy       Counter:       4   Parms: VV      U1      
           Vector  Mate for  SItauy       Diagnostic #    225  SItaux   exists 
 Computing Diagnostic #    285  SIareaN      Counter:       4   Parms: SM      MX      
 Computing Diagnostic #    284  SIheffN      Counter:       4   Parms: SM      MX      
 Computing Diagnostic #    286  SIhsnowN     Counter:       4   Parms: SM      MX      
 Compute Stats, Diag. #    214  SIarea    vol(   0 ): 3.580E+14  Parms: SM      M1      
 Compute Stats, Diag. #    217  SIheff    vol(   0 ): 3.580E+14  Parms: SM      M1      
 Compute Stats, Diag. #    219  SIhsnow   vol(   0 ): 3.580E+14  Parms: SM      M1      
 Compute Stats, Diag. #     83  sIceLoad  vol(   0 ): 3.580E+14  Parms: SM      U1      
 Compute Stats, Diag. #    223  SIuice    vol(   0 ): 3.513E+14  Parms: UU      M1      
 Compute Stats, Diag. #    224  SIvice    vol(   0 ): 3.508E+14  Parms: VV      M1      
 Compute Stats, Diag. #    225  SItaux    vol(   0 ): 3.513E+14  Parms: UU      U1      
 Compute Stats, Diag. #    226  SItauy    vol(   0 ): 3.508E+14  Parms: VV      U1      
 cg2d: Sum(rhs),rhsMax =  -5.34469993715481E+01  3.00872417664772E-01
 Compute Stats, Diag. #    214  SIarea    vol(   0 ): 3.580E+14  Parms: SM      M1      
 Compute Stats, Diag. #    217  SIheff    vol(   0 ): 3.580E+14  Parms: SM      M1      
 Compute Stats, Diag. #    219  SIhsnow   vol(   0 ): 3.580E+14  Parms: SM      M1      
 Compute Stats, Diag. #     83  sIceLoad  vol(   0 ): 3.580E+14  Parms: SM      U1      
 Compute Stats, Diag. #    223  SIuice    vol(   0 ): 3.513E+14  Parms: UU      M1      
 Compute Stats, Diag. #    224  SIvice    vol(   0 ): 3.508E+14  Parms: VV      M1      
 Compute Stats, Diag. #    225  SItaux    vol(   0 ): 3.513E+14  Parms: UU      U1      
 Compute Stats, Diag. #    226  SItauy    vol(   0 ): 3.508E+14  Parms: VV      U1      
 cg2d: Sum(rhs),rhsMax =  -5.35246850605837E+01  3.00875091562499E-01
 Compute Stats, Diag. #    214  SIarea    vol(   0 ): 3.580E+14  Parms: SM      M1      
 Compute Stats, Diag. #    217  SIheff    vol(   0 ): 3.580E+14  Parms: SM      M1      
 Compute Stats, Diag. #    219  SIhsnow   vol(   0 ): 3.580E+14  Parms: SM      M1      
 Compute Stats, Diag. #     83  sIceLoad  vol(   0 ): 3.580E+14  Parms: SM      U1      
 Compute Stats, Diag. #    223  SIuice    vol(   0 ): 3.513E+14  Parms: UU      M1      
 Compute Stats, Diag. #    224  SIvice    vol(   0 ): 3.508E+14  Parms: VV      M1      
 Compute Stats, Diag. #    225  SItaux    vol(   0 ): 3.513E+14  Parms: UU      U1      
 Compute Stats, Diag. #    226  SItauy    vol(   0 ): 3.508E+14  Parms: VV      U1      
 cg2d: Sum(rhs),rhsMax =  -5.35979724918802E+01  3.00868860932016E-01
 Compute Stats, Diag. #    214  SIarea    vol(   0 ): 3.580E+14  Parms: SM      M1      
 Compute Stats, Diag. #    217  SIheff    vol(   0 ): 3.580E+14  Parms: SM      M1      
 Compute Stats, Diag. #    219  SIhsnow   vol(   0 ): 3.580E+14  Parms: SM      M1      
 Compute Stats, Diag. #     83  sIceLoad  vol(   0 ): 3.580E+14  Parms: SM      U1      
 Compute Stats, Diag. #    223  SIuice    vol(   0 ): 3.513E+14  Parms: UU      M1      
 Compute Stats, Diag. #    224  SIvice    vol(   0 ): 3.508E+14  Parms: VV      M1      
 Compute Stats, Diag. #    225  SItaux    vol(   0 ): 3.513E+14  Parms: UU      U1      
 Compute Stats, Diag. #    226  SItauy    vol(   0 ): 3.508E+14  Parms: VV      U1      
 cg2d: Sum(rhs),rhsMax =  -5.36801672228793E+01  3.00854095196858E-01
(PID.TID 0000.0001)      cg2d_init_res =   3.72921857672746E-02
(PID.TID 0000.0001)      cg2d_iters(min,last) =      -1      22
(PID.TID 0000.0001)      cg2d_last_res =   2.13325544301923E-05
(PID.TID 0000.0001) // =======================================================
(PID.TID 0000.0001) // Begin MONITOR dynamic field statistics
(PID.TID 0000.0001) // =======================================================
(PID.TID 0000.0001) %MON time_tsnumber                =                  1208
(PID.TID 0000.0001) %MON time_secondsf                =   1.0872000000000E+06
(PID.TID 0000.0001) %MON dynstat_eta_max              =   1.0159372575337E+00
(PID.TID 0000.0001) %MON dynstat_eta_min              =  -1.8501347879065E+00
(PID.TID 0000.0001) %MON dynstat_eta_mean             =   1.6980751323383E-03
(PID.TID 0000.0001) %MON dynstat_eta_sd               =   6.2582807228727E-01
(PID.TID 0000.0001) %MON dynstat_eta_del2             =   5.1420992222016E-05
(PID.TID 0000.0001) %MON dynstat_uvel_max             =   6.4726341549694E-01
(PID.TID 0000.0001) %MON dynstat_uvel_min             =  -9.1230060597223E-01
(PID.TID 0000.0001) %MON dynstat_uvel_mean            =   1.3980958901091E-03
(PID.TID 0000.0001) %MON dynstat_uvel_sd              =   1.7958367039465E-02
(PID.TID 0000.0001) %MON dynstat_uvel_del2            =   7.0224834812416E-06
(PID.TID 0000.0001) %MON dynstat_vvel_max             =   6.3901847808694E-01
(PID.TID 0000.0001) %MON dynstat_vvel_min             =  -1.0568200070351E+00
(PID.TID 0000.0001) %MON dynstat_vvel_mean            =   1.0647178239119E-03
(PID.TID 0000.0001) %MON dynstat_vvel_sd              =   1.9543698496020E-02
(PID.TID 0000.0001) %MON dynstat_vvel_del2            =   7.3270506903949E-06
(PID.TID 0000.0001) %MON dynstat_wvel_max             =   3.2100934864479E-04
(PID.TID 0000.0001) %MON dynstat_wvel_min             =  -7.5932547660804E-04
(PID.TID 0000.0001) %MON dynstat_wvel_mean            =   5.2766751819778E-09
(PID.TID 0000.0001) %MON dynstat_wvel_sd              =   1.6857521792950E-05
(PID.TID 0000.0001) %MON dynstat_wvel_del2            =   1.4288645867147E-08
(PID.TID 0000.0001) %MON dynstat_theta_max            =   3.1484241253428E+01
(PID.TID 0000.0001) %MON dynstat_theta_min            =  -2.0395288795536E+00
(PID.TID 0000.0001) %MON dynstat_theta_mean           =   3.5900369300788E+00
(PID.TID 0000.0001) %MON dynstat_theta_sd             =   4.4367905309031E+00
(PID.TID 0000.0001) %MON dynstat_theta_del2           =   8.9380495473772E-05
(PID.TID 0000.0001) %MON dynstat_salt_max             =   4.0711551906312E+01
(PID.TID 0000.0001) %MON dynstat_salt_min             =   7.2597479468474E+00
(PID.TID 0000.0001) %MON dynstat_salt_mean            =   3.4725556561126E+01
(PID.TID 0000.0001) %MON dynstat_salt_sd              =   3.7714541709529E-01
(PID.TID 0000.0001) %MON dynstat_salt_del2            =   3.6350409562722E-05
(PID.TID 0000.0001) %MON dynstat_sst_max              =   3.1484225581384E+01
(PID.TID 0000.0001) %MON dynstat_sst_min              =  -1.8035976661122E+00
(PID.TID 0000.0001) %MON dynstat_sst_mean             =   1.8435990478140E+01
(PID.TID 0000.0001) %MON dynstat_sst_sd               =   1.0309692089050E+01
(PID.TID 0000.0001) %MON dynstat_sst_del2             =   7.9034058226756E-04
(PID.TID 0000.0001) %MON dynstat_sss_max              =   3.9098006860799E+01
(PID.TID 0000.0001) %MON dynstat_sss_min              =   7.2597479468474E+00
(PID.TID 0000.0001) %MON dynstat_sss_mean             =   3.4701660064751E+01
(PID.TID 0000.0001) %MON dynstat_sss_sd               =   1.1865521786219E+00
(PID.TID 0000.0001) %MON dynstat_sss_del2             =   1.0831940868775E-03
(PID.TID 0000.0001) %MON forcing_qnet_max             =   7.6867880410242E+02
(PID.TID 0000.0001) %MON forcing_qnet_min             =  -6.1824633598394E+02
(PID.TID 0000.0001) %MON forcing_qnet_mean            =   2.7110139944678E+01
(PID.TID 0000.0001) %MON forcing_qnet_sd              =   1.8002090215500E+02
(PID.TID 0000.0001) %MON forcing_qnet_del2            =   3.0139638666266E-01
(PID.TID 0000.0001) %MON forcing_qsw_max              =   0.0000000000000E+00
(PID.TID 0000.0001) %MON forcing_qsw_min              =  -1.0015492947359E+02
(PID.TID 0000.0001) %MON forcing_qsw_mean             =  -1.4503965831868E+01
(PID.TID 0000.0001) %MON forcing_qsw_sd               =   2.4568503547149E+01
(PID.TID 0000.0001) %MON forcing_qsw_del2             =   2.0010143749879E-02
(PID.TID 0000.0001) %MON forcing_empmr_max            =   1.5372721245512E-03
(PID.TID 0000.0001) %MON forcing_empmr_min            =  -4.7637239098549E-02
(PID.TID 0000.0001) %MON forcing_empmr_mean           =  -2.9727602531161E-06
(PID.TID 0000.0001) %MON forcing_empmr_sd             =   2.4587395054479E-04
(PID.TID 0000.0001) %MON forcing_empmr_del2           =   3.0479751100854E-06
(PID.TID 0000.0001) %MON forcing_fu_max               =   9.2265883088111E-01
(PID.TID 0000.0001) %MON forcing_fu_min               =  -6.8051604753831E-01
(PID.TID 0000.0001) %MON forcing_fu_mean              =   5.4533605039175E-03
(PID.TID 0000.0001) %MON forcing_fu_sd                =   1.1200431623955E-01
(PID.TID 0000.0001) %MON forcing_fu_del2              =   1.3796294303746E-04
(PID.TID 0000.0001) %MON forcing_fv_max               =   8.9189714193344E-01
(PID.TID 0000.0001) %MON forcing_fv_min               =  -9.0100854635239E-01
(PID.TID 0000.0001) %MON forcing_fv_mean              =  -8.4607547369638E-03
(PID.TID 0000.0001) %MON forcing_fv_sd                =   1.1588697354751E-01
(PID.TID 0000.0001) %MON forcing_fv_del2              =   1.6622938625850E-04
(PID.TID 0000.0001) %MON trAdv_CFL_u_max              =   1.2218781231035E-02
(PID.TID 0000.0001) %MON trAdv_CFL_v_max              =   1.3009490781922E-02
(PID.TID 0000.0001) %MON trAdv_CFL_w_max              =   2.1183386564057E-02
(PID.TID 0000.0001) %MON advcfl_uvel_max              =   1.0527609656377E-02
(PID.TID 0000.0001) %MON advcfl_vvel_max              =   1.2678417344638E-02
(PID.TID 0000.0001) %MON advcfl_wvel_max              =   2.3361597904191E-02
(PID.TID 0000.0001) %MON advcfl_W_hf_max              =   2.4502214764769E-02
(PID.TID 0000.0001) %MON pe_b_mean                    =   5.1519466617587E-04
(PID.TID 0000.0001) %MON ke_max                       =   5.9657537329313E-01
(PID.TID 0000.0001) %MON ke_mean                      =   3.4117701602262E-04
(PID.TID 0000.0001) %MON ke_vol                       =   1.3349984839429E+18
(PID.TID 0000.0001) %MON vort_r_min                   =  -1.4911404948744E-05
(PID.TID 0000.0001) %MON vort_r_max                   =   1.7206281866653E-05
(PID.TID 0000.0001) %MON vort_a_mean                  =  -1.9727864647440E-05
(PID.TID 0000.0001) %MON vort_a_sd                    =   7.4542986010917E-05
(PID.TID 0000.0001) %MON vort_p_mean                  =  -2.1760523918352E-05
(PID.TID 0000.0001) %MON vort_p_sd                    =   9.7247359390475E-05
(PID.TID 0000.0001) %MON surfExpan_theta_mean         =   1.3933368976155E-07
(PID.TID 0000.0001) %MON surfExpan_salt_mean          =   4.2502215954028E-08
(PID.TID 0000.0001) // =======================================================
(PID.TID 0000.0001) // End MONITOR dynamic field statistics
(PID.TID 0000.0001) // =======================================================
(PID.TID 0000.0001) // =======================================================
(PID.TID 0000.0001) // Begin MONITOR SEAICE statistics
(PID.TID 0000.0001) // =======================================================
(PID.TID 0000.0001) %MON seaice_tsnumber              =                  1208
(PID.TID 0000.0001) %MON seaice_time_sec              =   1.0872000000000E+06
(PID.TID 0000.0001) %MON seaice_uice_max              =   4.0000000000000E-01
(PID.TID 0000.0001) %MON seaice_uice_min              =  -4.0000000000000E-01
(PID.TID 0000.0001) %MON seaice_uice_mean             =  -8.3054598624025E-03
(PID.TID 0000.0001) %MON seaice_uice_sd               =   1.9802383574176E-01
(PID.TID 0000.0001) %MON seaice_uice_del2             =   2.2931571122150E-04
(PID.TID 0000.0001) %MON seaice_vice_max              =   4.0000000000000E-01
(PID.TID 0000.0001) %MON seaice_vice_min              =  -4.0000000000000E-01
(PID.TID 0000.0001) %MON seaice_vice_mean             =  -2.1960776359499E-02
(PID.TID 0000.0001) %MON seaice_vice_sd               =   2.1302038025672E-01
(PID.TID 0000.0001) %MON seaice_vice_del2             =   2.3932563818061E-04
(PID.TID 0000.0001) %MON seaice_area_max              =   9.9999999813735E-01
(PID.TID 0000.0001) %MON seaice_area_min              =   0.0000000000000E+00
(PID.TID 0000.0001) %MON seaice_area_mean             =   6.4325204771601E-02
(PID.TID 0000.0001) %MON seaice_area_sd               =   2.2712468912860E-01
(PID.TID 0000.0001) %MON seaice_area_del2             =   3.6945279064240E-04
(PID.TID 0000.0001) %MON seaice_heff_max              =   2.4879837141372E+01
(PID.TID 0000.0001) %MON seaice_heff_min              =   0.0000000000000E+00
(PID.TID 0000.0001) %MON seaice_heff_mean             =   2.1120659153888E-01
(PID.TID 0000.0001) %MON seaice_heff_sd               =   1.0653397641422E+00
(PID.TID 0000.0001) %MON seaice_heff_del2             =   3.8069169085961E-03
(PID.TID 0000.0001) %MON seaice_hsnow_max             =   8.2177799670026E+00
(PID.TID 0000.0001) %MON seaice_hsnow_min             =   0.0000000000000E+00
(PID.TID 0000.0001) %MON seaice_hsnow_mean            =   2.3852675627796E-02
(PID.TID 0000.0001) %MON seaice_hsnow_sd              =   1.5568099726767E-01
(PID.TID 0000.0001) %MON seaice_hsnow_del2            =   1.2325941470356E-03
(PID.TID 0000.0001) // =======================================================
(PID.TID 0000.0001) // End MONITOR SEAICE statistics
(PID.TID 0000.0001) // =======================================================
 Computing Diagnostic #     86  oceQnet      Counter:       4   Parms: SM      U1      
 Computing Diagnostic #     87  oceQsw       Counter:       4   Parms: SM      U1      
 Computing Diagnostic #     84  oceFWflx     Counter:       4   Parms: SM      U1      
 Computing Diagnostic #     85  oceSflux     Counter:       4   Parms: SM      U1      
 Computing Diagnostic #     80  oceTAUX      Counter:       4   Parms: UU      U1      
           Vector  Mate for  oceTAUX      Diagnostic #     81  oceTAUY  exists 
 Computing Diagnostic #     81  oceTAUY      Counter:       4   Parms: VV      U1      
           Vector  Mate for  oceTAUY      Diagnostic #     80  oceTAUX  exists 
 Computing Diagnostic #     26  THETA        Counter:       4   Parms: SMR     MR      
 Computing Diagnostic #     27  SALT         Counter:       4   Parms: SMR     MR      
 Computing Diagnostic #     30  UVEL         Counter:       4   Parms: UUR     MR      
           Vector  Mate for  UVEL         Diagnostic #     31  VVEL     exists 
 Computing Diagnostic #     31  VVEL         Counter:       4   Parms: VVR     MR      
           Vector  Mate for  VVEL         Diagnostic #     30  UVEL     exists 
 Computing Diagnostic #    214  SIarea       Counter:       4   Parms: SM      M1      
 Computing Diagnostic #    217  SIheff       Counter:       4   Parms: SM      M1      
 Computing Diagnostic #    219  SIhsnow      Counter:       4   Parms: SM      M1      
 Computing Diagnostic #     83  sIceLoad     Counter:       4   Parms: SM      U1      
 Computing Diagnostic #    223  SIuice       Counter:       4   Parms: UU      M1      
           Vector  Mate for  SIuice       Diagnostic #    224  SIvice   exists 
 Computing Diagnostic #    224  SIvice       Counter:       4   Parms: VV      M1      
           Vector  Mate for  SIvice       Diagnostic #    223  SIuice   exists 
 Computing Diagnostic #    225  SItaux       Counter:       4   Parms: UU      U1      
           Vector  Mate for  SItaux       Diagnostic #    226  SItauy   exists 
 Computing Diagnostic #    226  SItauy       Counter:       4   Parms: VV      U1      
           Vector  Mate for  SItauy       Diagnostic #    225  SItaux   exists 
 Computing Diagnostic #    285  SIareaN      Counter:       4   Parms: SM      MX      
 Computing Diagnostic #    284  SIheffN      Counter:       4   Parms: SM      MX      
 Computing Diagnostic #    286  SIhsnowN     Counter:       4   Parms: SM      MX      
 Compute Stats, Diag. #    214  SIarea    vol(   0 ): 3.580E+14  Parms: SM      M1      
 Compute Stats, Diag. #    217  SIheff    vol(   0 ): 3.580E+14  Parms: SM      M1      
 Compute Stats, Diag. #    219  SIhsnow   vol(   0 ): 3.580E+14  Parms: SM      M1      
 Compute Stats, Diag. #     83  sIceLoad  vol(   0 ): 3.580E+14  Parms: SM      U1      
 Compute Stats, Diag. #    223  SIuice    vol(   0 ): 3.513E+14  Parms: UU      M1      
 Compute Stats, Diag. #    224  SIvice    vol(   0 ): 3.508E+14  Parms: VV      M1      
 Compute Stats, Diag. #    225  SItaux    vol(   0 ): 3.513E+14  Parms: UU      U1      
 Compute Stats, Diag. #    226  SItauy    vol(   0 ): 3.508E+14  Parms: VV      U1      
 cg2d: Sum(rhs),rhsMax =  -5.37713658247835E+01  3.00832111592557E-01
 Compute Stats, Diag. #    214  SIarea    vol(   0 ): 3.580E+14  Parms: SM      M1      
 Compute Stats, Diag. #    217  SIheff    vol(   0 ): 3.580E+14  Parms: SM      M1      
 Compute Stats, Diag. #    219  SIhsnow   vol(   0 ): 3.580E+14  Parms: SM      M1      
 Compute Stats, Diag. #     83  sIceLoad  vol(   0 ): 3.580E+14  Parms: SM      U1      
 Compute Stats, Diag. #    223  SIuice    vol(   0 ): 3.513E+14  Parms: UU      M1      
 Compute Stats, Diag. #    224  SIvice    vol(   0 ): 3.508E+14  Parms: VV      M1      
 Compute Stats, Diag. #    225  SItaux    vol(   0 ): 3.513E+14  Parms: UU      U1      
 Compute Stats, Diag. #    226  SItauy    vol(   0 ): 3.508E+14  Parms: VV      U1      
 cg2d: Sum(rhs),rhsMax =  -5.38623967326303E+01  3.00804528688681E-01
 Compute Stats, Diag. #    214  SIarea    vol(   0 ): 3.580E+14  Parms: SM      M1      
 Compute Stats, Diag. #    217  SIheff    vol(   0 ): 3.580E+14  Parms: SM      M1      
 Compute Stats, Diag. #    219  SIhsnow   vol(   0 ): 3.580E+14  Parms: SM      M1      
 Compute Stats, Diag. #     83  sIceLoad  vol(   0 ): 3.580E+14  Parms: SM      U1      
 Compute Stats, Diag. #    223  SIuice    vol(   0 ): 3.513E+14  Parms: UU      M1      
 Compute Stats, Diag. #    224  SIvice    vol(   0 ): 3.508E+14  Parms: VV      M1      
 Compute Stats, Diag. #    225  SItaux    vol(   0 ): 3.513E+14  Parms: UU      U1      
 Compute Stats, Diag. #    226  SItauy    vol(   0 ): 3.508E+14  Parms: VV      U1      
 cg2d: Sum(rhs),rhsMax =  -5.39529219174100E+01  3.00772306724823E-01
 Compute Stats, Diag. #    214  SIarea    vol(   0 ): 3.580E+14  Parms: SM      M1      
 Compute Stats, Diag. #    217  SIheff    vol(   0 ): 3.580E+14  Parms: SM      M1      
 Compute Stats, Diag. #    219  SIhsnow   vol(   0 ): 3.580E+14  Parms: SM      M1      
 Compute Stats, Diag. #     83  sIceLoad  vol(   0 ): 3.580E+14  Parms: SM      U1      
 Compute Stats, Diag. #    223  SIuice    vol(   0 ): 3.513E+14  Parms: UU      M1      
 Compute Stats, Diag. #    224  SIvice    vol(   0 ): 3.508E+14  Parms: VV      M1      
 Compute Stats, Diag. #    225  SItaux    vol(   0 ): 3.513E+14  Parms: UU      U1      
 Compute Stats, Diag. #    226  SItauy    vol(   0 ): 3.508E+14  Parms: VV      U1      
 cg2d: Sum(rhs),rhsMax =  -5.40511353484163E+01  3.00736296809813E-01
 Computing Diagnostic #     86  oceQnet      Counter:       4   Parms: SM      U1      
 Computing Diagnostic #     87  oceQsw       Counter:       4   Parms: SM      U1      
 Computing Diagnostic #     84  oceFWflx     Counter:       4   Parms: SM      U1      
 Computing Diagnostic #     85  oceSflux     Counter:       4   Parms: SM      U1      
 Computing Diagnostic #     80  oceTAUX      Counter:       4   Parms: UU      U1      
           Vector  Mate for  oceTAUX      Diagnostic #     81  oceTAUY  exists 
 Computing Diagnostic #     81  oceTAUY      Counter:       4   Parms: VV      U1      
           Vector  Mate for  oceTAUY      Diagnostic #     80  oceTAUX  exists 
 Computing Diagnostic #     26  THETA        Counter:       4   Parms: SMR     MR      
 Computing Diagnostic #     27  SALT         Counter:       4   Parms: SMR     MR      
 Computing Diagnostic #     30  UVEL         Counter:       4   Parms: UUR     MR      
           Vector  Mate for  UVEL         Diagnostic #     31  VVEL     exists 
 Computing Diagnostic #     31  VVEL         Counter:       4   Parms: VVR     MR      
           Vector  Mate for  VVEL         Diagnostic #     30  UVEL     exists 
 Computing Diagnostic #    214  SIarea       Counter:       4   Parms: SM      M1      
 Computing Diagnostic #    217  SIheff       Counter:       4   Parms: SM      M1      
 Computing Diagnostic #    219  SIhsnow      Counter:       4   Parms: SM      M1      
 Computing Diagnostic #     83  sIceLoad     Counter:       4   Parms: SM      U1      
 Computing Diagnostic #    223  SIuice       Counter:       4   Parms: UU      M1      
           Vector  Mate for  SIuice       Diagnostic #    224  SIvice   exists 
 Computing Diagnostic #    224  SIvice       Counter:       4   Parms: VV      M1      
           Vector  Mate for  SIvice       Diagnostic #    223  SIuice   exists 
 Computing Diagnostic #    225  SItaux       Counter:       4   Parms: UU      U1      
           Vector  Mate for  SItaux       Diagnostic #    226  SItauy   exists 
 Computing Diagnostic #    226  SItauy       Counter:       4   Parms: VV      U1      
           Vector  Mate for  SItauy       Diagnostic #    225  SItaux   exists 
 Computing Diagnostic #    285  SIareaN      Counter:       4   Parms: SM      MX      
 Computing Diagnostic #    284  SIheffN      Counter:       4   Parms: SM      MX      
 Computing Diagnostic #    286  SIhsnowN     Counter:       4   Parms: SM      MX      
 Compute Stats, Diag. #    214  SIarea    vol(   0 ): 3.580E+14  Parms: SM      M1      
 Compute Stats, Diag. #    217  SIheff    vol(   0 ): 3.580E+14  Parms: SM      M1      
 Compute Stats, Diag. #    219  SIhsnow   vol(   0 ): 3.580E+14  Parms: SM      M1      
 Compute Stats, Diag. #     83  sIceLoad  vol(   0 ): 3.580E+14  Parms: SM      U1      
 Compute Stats, Diag. #    223  SIuice    vol(   0 ): 3.513E+14  Parms: UU      M1      
 Compute Stats, Diag. #    224  SIvice    vol(   0 ): 3.508E+14  Parms: VV      M1      
 Compute Stats, Diag. #    225  SItaux    vol(   0 ): 3.513E+14  Parms: UU      U1      
 Compute Stats, Diag. #    226  SItauy    vol(   0 ): 3.508E+14  Parms: VV      U1      
 cg2d: Sum(rhs),rhsMax =  -5.41404164047128E+01  3.00696804056098E-01
 Compute Stats, Diag. #    214  SIarea    vol(   0 ): 3.580E+14  Parms: SM      M1      
 Compute Stats, Diag. #    217  SIheff    vol(   0 ): 3.580E+14  Parms: SM      M1      
 Compute Stats, Diag. #    219  SIhsnow   vol(   0 ): 3.580E+14  Parms: SM      M1      
 Compute Stats, Diag. #     83  sIceLoad  vol(   0 ): 3.580E+14  Parms: SM      U1      
 Compute Stats, Diag. #    223  SIuice    vol(   0 ): 3.513E+14  Parms: UU      M1      
 Compute Stats, Diag. #    224  SIvice    vol(   0 ): 3.508E+14  Parms: VV      M1      
 Compute Stats, Diag. #    225  SItaux    vol(   0 ): 3.513E+14  Parms: UU      U1      
 Compute Stats, Diag. #    226  SItauy    vol(   0 ): 3.508E+14  Parms: VV      U1      
 cg2d: Sum(rhs),rhsMax =  -5.42301176861616E+01  3.00654891315575E-01
 Compute Stats, Diag. #    214  SIarea    vol(   0 ): 3.580E+14  Parms: SM      M1      
 Compute Stats, Diag. #    217  SIheff    vol(   0 ): 3.580E+14  Parms: SM      M1      
 Compute Stats, Diag. #    219  SIhsnow   vol(   0 ): 3.580E+14  Parms: SM      M1      
 Compute Stats, Diag. #     83  sIceLoad  vol(   0 ): 3.580E+14  Parms: SM      U1      
 Compute Stats, Diag. #    223  SIuice    vol(   0 ): 3.513E+14  Parms: UU      M1      
 Compute Stats, Diag. #    224  SIvice    vol(   0 ): 3.508E+14  Parms: VV      M1      
 Compute Stats, Diag. #    225  SItaux    vol(   0 ): 3.513E+14  Parms: UU      U1      
 Compute Stats, Diag. #    226  SItauy    vol(   0 ): 3.508E+14  Parms: VV      U1      
 cg2d: Sum(rhs),rhsMax =  -5.43344086024204E+01  3.00611821185212E-01
 Compute Stats, Diag. #    214  SIarea    vol(   0 ): 3.580E+14  Parms: SM      M1      
 Compute Stats, Diag. #    217  SIheff    vol(   0 ): 3.580E+14  Parms: SM      M1      
 Compute Stats, Diag. #    219  SIhsnow   vol(   0 ): 3.580E+14  Parms: SM      M1      
 Compute Stats, Diag. #     83  sIceLoad  vol(   0 ): 3.580E+14  Parms: SM      U1      
 Compute Stats, Diag. #    223  SIuice    vol(   0 ): 3.513E+14  Parms: UU      M1      
 Compute Stats, Diag. #    224  SIvice    vol(   0 ): 3.508E+14  Parms: VV      M1      
 Compute Stats, Diag. #    225  SItaux    vol(   0 ): 3.513E+14  Parms: UU      U1      
 Compute Stats, Diag. #    226  SItauy    vol(   0 ): 3.508E+14  Parms: VV      U1      
 cg2d: Sum(rhs),rhsMax =  -5.44369145846979E+01  3.00569594679462E-01
(PID.TID 0000.0001)      cg2d_init_res =   3.95396485955217E-02
(PID.TID 0000.0001)      cg2d_iters(min,last) =      -1      23
(PID.TID 0000.0001)      cg2d_last_res =   2.55487459992377E-05
(PID.TID 0000.0001) // =======================================================
(PID.TID 0000.0001) // Begin MONITOR dynamic field statistics
(PID.TID 0000.0001) // =======================================================
(PID.TID 0000.0001) %MON time_tsnumber                =                  1216
(PID.TID 0000.0001) %MON time_secondsf                =   1.0944000000000E+06
(PID.TID 0000.0001) %MON dynstat_eta_max              =   1.0171019370490E+00
(PID.TID 0000.0001) %MON dynstat_eta_min              =  -1.8519053658972E+00
(PID.TID 0000.0001) %MON dynstat_eta_mean             =   1.7220134682834E-03
(PID.TID 0000.0001) %MON dynstat_eta_sd               =   6.2588011196790E-01
(PID.TID 0000.0001) %MON dynstat_eta_del2             =   5.1345572610213E-05
(PID.TID 0000.0001) %MON dynstat_uvel_max             =   6.4856070361198E-01
(PID.TID 0000.0001) %MON dynstat_uvel_min             =  -9.1263192439564E-01
(PID.TID 0000.0001) %MON dynstat_uvel_mean            =   1.3929653732960E-03
(PID.TID 0000.0001) %MON dynstat_uvel_sd              =   1.7965237742215E-02
(PID.TID 0000.0001) %MON dynstat_uvel_del2            =   7.0397271368452E-06
(PID.TID 0000.0001) %MON dynstat_vvel_max             =   6.4955446741956E-01
(PID.TID 0000.0001) %MON dynstat_vvel_min             =  -1.0594492960059E+00
(PID.TID 0000.0001) %MON dynstat_vvel_mean            =   1.0685651185506E-03
(PID.TID 0000.0001) %MON dynstat_vvel_sd              =   1.9553097597985E-02
(PID.TID 0000.0001) %MON dynstat_vvel_del2            =   7.3420218922344E-06
(PID.TID 0000.0001) %MON dynstat_wvel_max             =   3.2207024273054E-04
(PID.TID 0000.0001) %MON dynstat_wvel_min             =  -7.5877668291084E-04
(PID.TID 0000.0001) %MON dynstat_wvel_mean            =   6.9897280360655E-09
(PID.TID 0000.0001) %MON dynstat_wvel_sd              =   1.6963654750102E-05
(PID.TID 0000.0001) %MON dynstat_wvel_del2            =   1.4320915979233E-08
(PID.TID 0000.0001) %MON dynstat_theta_max            =   3.1464924563487E+01
(PID.TID 0000.0001) %MON dynstat_theta_min            =  -2.0395213247199E+00
(PID.TID 0000.0001) %MON dynstat_theta_mean           =   3.5900265544894E+00
(PID.TID 0000.0001) %MON dynstat_theta_sd             =   4.4367625563204E+00
(PID.TID 0000.0001) %MON dynstat_theta_del2           =   8.9343833031906E-05
(PID.TID 0000.0001) %MON dynstat_salt_max             =   4.0711552363244E+01
(PID.TID 0000.0001) %MON dynstat_salt_min             =   7.3629358460982E+00
(PID.TID 0000.0001) %MON dynstat_salt_mean            =   3.4725556329999E+01
(PID.TID 0000.0001) %MON dynstat_salt_sd              =   3.7714601906977E-01
(PID.TID 0000.0001) %MON dynstat_salt_del2            =   3.6345941327408E-05
(PID.TID 0000.0001) %MON dynstat_sst_max              =   3.1464910355536E+01
(PID.TID 0000.0001) %MON dynstat_sst_min              =  -1.8049158397899E+00
(PID.TID 0000.0001) %MON dynstat_sst_mean             =   1.8435093987233E+01
(PID.TID 0000.0001) %MON dynstat_sst_sd               =   1.0310065128050E+01
(PID.TID 0000.0001) %MON dynstat_sst_del2             =   7.8943974101549E-04
(PID.TID 0000.0001) %MON dynstat_sss_max              =   3.9097998544610E+01
(PID.TID 0000.0001) %MON dynstat_sss_min              =   7.3629358460982E+00
(PID.TID 0000.0001) %MON dynstat_sss_mean             =   3.4701723434537E+01
(PID.TID 0000.0001) %MON dynstat_sss_sd               =   1.1866516157456E+00
(PID.TID 0000.0001) %MON dynstat_sss_del2             =   1.0802749601605E-03
(PID.TID 0000.0001) %MON forcing_qnet_max             =   7.4781884765625E+02
(PID.TID 0000.0001) %MON forcing_qnet_min             =  -6.9249944252494E+02
(PID.TID 0000.0001) %MON forcing_qnet_mean            =   1.8539325063231E+01
(PID.TID 0000.0001) %MON forcing_qnet_sd              =   2.0688140815471E+02
(PID.TID 0000.0001) %MON forcing_qnet_del2            =   3.0678603839705E-01
(PID.TID 0000.0001) %MON forcing_qsw_max              =   0.0000000000000E+00
(PID.TID 0000.0001) %MON forcing_qsw_min              =  -1.0597192730346E+02
(PID.TID 0000.0001) %MON forcing_qsw_mean             =  -1.5682383362337E+01
(PID.TID 0000.0001) %MON forcing_qsw_sd               =   2.7969145578287E+01
(PID.TID 0000.0001) %MON forcing_qsw_del2             =   2.0916963236518E-02
(PID.TID 0000.0001) %MON forcing_empmr_max            =   1.6857910668477E-03
(PID.TID 0000.0001) %MON forcing_empmr_min            =  -5.2301891148090E-02
(PID.TID 0000.0001) %MON forcing_empmr_mean           =  -3.7073630647496E-06
(PID.TID 0000.0001) %MON forcing_empmr_sd             =   2.4687397926705E-04
(PID.TID 0000.0001) %MON forcing_empmr_del2           =   2.7500381720519E-06
(PID.TID 0000.0001) %MON forcing_fu_max               =   9.0157499909400E-01
(PID.TID 0000.0001) %MON forcing_fu_min               =  -7.2361707687378E-01
(PID.TID 0000.0001) %MON forcing_fu_mean              =   4.9129859285903E-03
(PID.TID 0000.0001) %MON forcing_fu_sd                =   1.1296690358734E-01
(PID.TID 0000.0001) %MON forcing_fu_del2              =   1.4140319322083E-04
(PID.TID 0000.0001) %MON forcing_fv_max               =   9.6512258052826E-01
(PID.TID 0000.0001) %MON forcing_fv_min               =  -8.2129275798798E-01
(PID.TID 0000.0001) %MON forcing_fv_mean              =  -7.0971517137918E-03
(PID.TID 0000.0001) %MON forcing_fv_sd                =   1.1706754804467E-01
(PID.TID 0000.0001) %MON forcing_fv_del2              =   1.6935600563103E-04
(PID.TID 0000.0001) %MON trAdv_CFL_u_max              =   1.2317387937912E-02
(PID.TID 0000.0001) %MON trAdv_CFL_v_max              =   1.2948417142062E-02
(PID.TID 0000.0001) %MON trAdv_CFL_w_max              =   2.1103226325299E-02
(PID.TID 0000.0001) %MON advcfl_uvel_max              =   1.0624579547495E-02
(PID.TID 0000.0001) %MON advcfl_vvel_max              =   1.2774566618204E-02
(PID.TID 0000.0001) %MON advcfl_wvel_max              =   2.3285228012038E-02
(PID.TID 0000.0001) %MON advcfl_W_hf_max              =   2.4422044833769E-02
(PID.TID 0000.0001) %MON pe_b_mean                    =   5.1528045387337E-04
(PID.TID 0000.0001) %MON ke_max                       =   6.0073212395232E-01
(PID.TID 0000.0001) %MON ke_mean                      =   3.4147027285259E-04
(PID.TID 0000.0001) %MON ke_vol                       =   1.3349984922831E+18
(PID.TID 0000.0001) %MON vort_r_min                   =  -1.4689173608766E-05
(PID.TID 0000.0001) %MON vort_r_max                   =   1.7047160694461E-05
(PID.TID 0000.0001) %MON vort_a_mean                  =  -1.9727864647440E-05
(PID.TID 0000.0001) %MON vort_a_sd                    =   7.4542987064855E-05
(PID.TID 0000.0001) %MON vort_p_mean                  =  -2.1760523837609E-05
(PID.TID 0000.0001) %MON vort_p_sd                    =   9.7247333687910E-05
(PID.TID 0000.0001) %MON surfExpan_theta_mean         =   1.1483028491919E-07
(PID.TID 0000.0001) %MON surfExpan_salt_mean          =   3.8278186750574E-08
(PID.TID 0000.0001) // =======================================================
(PID.TID 0000.0001) // End MONITOR dynamic field statistics
(PID.TID 0000.0001) // =======================================================
(PID.TID 0000.0001) // =======================================================
(PID.TID 0000.0001) // Begin MONITOR SEAICE statistics
(PID.TID 0000.0001) // =======================================================
(PID.TID 0000.0001) %MON seaice_tsnumber              =                  1216
(PID.TID 0000.0001) %MON seaice_time_sec              =   1.0944000000000E+06
(PID.TID 0000.0001) %MON seaice_uice_max              =   4.0000000000000E-01
(PID.TID 0000.0001) %MON seaice_uice_min              =  -4.0000000000000E-01
(PID.TID 0000.0001) %MON seaice_uice_mean             =  -8.3054598624025E-03
(PID.TID 0000.0001) %MON seaice_uice_sd               =   1.9802383574176E-01
(PID.TID 0000.0001) %MON seaice_uice_del2             =   2.2931571122150E-04
(PID.TID 0000.0001) %MON seaice_vice_max              =   4.0000000000000E-01
(PID.TID 0000.0001) %MON seaice_vice_min              =  -4.0000000000000E-01
(PID.TID 0000.0001) %MON seaice_vice_mean             =  -2.1960776359499E-02
(PID.TID 0000.0001) %MON seaice_vice_sd               =   2.1302038025672E-01
(PID.TID 0000.0001) %MON seaice_vice_del2             =   2.3932563818061E-04
(PID.TID 0000.0001) %MON seaice_area_max              =   9.9999999813735E-01
(PID.TID 0000.0001) %MON seaice_area_min              =   0.0000000000000E+00
(PID.TID 0000.0001) %MON seaice_area_mean             =   6.4303711470109E-02
(PID.TID 0000.0001) %MON seaice_area_sd               =   2.2708608099262E-01
(PID.TID 0000.0001) %MON seaice_area_del2             =   3.6921289303549E-04
(PID.TID 0000.0001) %MON seaice_heff_max              =   2.4878559845849E+01
(PID.TID 0000.0001) %MON seaice_heff_min              =   0.0000000000000E+00
(PID.TID 0000.0001) %MON seaice_heff_mean             =   2.1118805774209E-01
(PID.TID 0000.0001) %MON seaice_heff_sd               =   1.0653267015969E+00
(PID.TID 0000.0001) %MON seaice_heff_del2             =   3.8063781674341E-03
(PID.TID 0000.0001) %MON seaice_hsnow_max             =   8.2173563722463E+00
(PID.TID 0000.0001) %MON seaice_hsnow_min             =   0.0000000000000E+00
(PID.TID 0000.0001) %MON seaice_hsnow_mean            =   2.3855749844071E-02
(PID.TID 0000.0001) %MON seaice_hsnow_sd              =   1.5567474068486E-01
(PID.TID 0000.0001) %MON seaice_hsnow_del2            =   1.2325081157863E-03
(PID.TID 0000.0001) // =======================================================
(PID.TID 0000.0001) // End MONITOR SEAICE statistics
(PID.TID 0000.0001) // =======================================================
 Computing Diagnostic #     86  oceQnet      Counter:       4   Parms: SM      U1      
 Computing Diagnostic #     87  oceQsw       Counter:       4   Parms: SM      U1      
 Computing Diagnostic #     84  oceFWflx     Counter:       4   Parms: SM      U1      
 Computing Diagnostic #     85  oceSflux     Counter:       4   Parms: SM      U1      
 Computing Diagnostic #     80  oceTAUX      Counter:       4   Parms: UU      U1      
           Vector  Mate for  oceTAUX      Diagnostic #     81  oceTAUY  exists 
 Computing Diagnostic #     81  oceTAUY      Counter:       4   Parms: VV      U1      
           Vector  Mate for  oceTAUY      Diagnostic #     80  oceTAUX  exists 
 Computing Diagnostic #     26  THETA        Counter:       4   Parms: SMR     MR      
 Computing Diagnostic #     27  SALT         Counter:       4   Parms: SMR     MR      
 Computing Diagnostic #     30  UVEL         Counter:       4   Parms: UUR     MR      
           Vector  Mate for  UVEL         Diagnostic #     31  VVEL     exists 
 Computing Diagnostic #     31  VVEL         Counter:       4   Parms: VVR     MR      
           Vector  Mate for  VVEL         Diagnostic #     30  UVEL     exists 
 Computing Diagnostic #    214  SIarea       Counter:       4   Parms: SM      M1      
 Computing Diagnostic #    217  SIheff       Counter:       4   Parms: SM      M1      
 Computing Diagnostic #    219  SIhsnow      Counter:       4   Parms: SM      M1      
 Computing Diagnostic #     83  sIceLoad     Counter:       4   Parms: SM      U1      
 Computing Diagnostic #    223  SIuice       Counter:       4   Parms: UU      M1      
           Vector  Mate for  SIuice       Diagnostic #    224  SIvice   exists 
 Computing Diagnostic #    224  SIvice       Counter:       4   Parms: VV      M1      
           Vector  Mate for  SIvice       Diagnostic #    223  SIuice   exists 
 Computing Diagnostic #    225  SItaux       Counter:       4   Parms: UU      U1      
           Vector  Mate for  SItaux       Diagnostic #    226  SItauy   exists 
 Computing Diagnostic #    226  SItauy       Counter:       4   Parms: VV      U1      
           Vector  Mate for  SItauy       Diagnostic #    225  SItaux   exists 
 Computing Diagnostic #    285  SIareaN      Counter:       4   Parms: SM      MX      
 Computing Diagnostic #    284  SIheffN      Counter:       4   Parms: SM      MX      
 Computing Diagnostic #    286  SIhsnowN     Counter:       4   Parms: SM      MX      
 Compute Stats, Diag. #    214  SIarea    vol(   0 ): 3.580E+14  Parms: SM      M1      
 Compute Stats, Diag. #    217  SIheff    vol(   0 ): 3.580E+14  Parms: SM      M1      
 Compute Stats, Diag. #    219  SIhsnow   vol(   0 ): 3.580E+14  Parms: SM      M1      
 Compute Stats, Diag. #     83  sIceLoad  vol(   0 ): 3.580E+14  Parms: SM      U1      
 Compute Stats, Diag. #    223  SIuice    vol(   0 ): 3.513E+14  Parms: UU      M1      
 Compute Stats, Diag. #    224  SIvice    vol(   0 ): 3.508E+14  Parms: VV      M1      
 Compute Stats, Diag. #    225  SItaux    vol(   0 ): 3.513E+14  Parms: UU      U1      
 Compute Stats, Diag. #    226  SItauy    vol(   0 ): 3.508E+14  Parms: VV      U1      
 cg2d: Sum(rhs),rhsMax =  -5.45408058010724E+01  3.00528656602221E-01
 Compute Stats, Diag. #    214  SIarea    vol(   0 ): 3.580E+14  Parms: SM      M1      
 Compute Stats, Diag. #    217  SIheff    vol(   0 ): 3.580E+14  Parms: SM      M1      
 Compute Stats, Diag. #    219  SIhsnow   vol(   0 ): 3.580E+14  Parms: SM      M1      
 Compute Stats, Diag. #     83  sIceLoad  vol(   0 ): 3.580E+14  Parms: SM      U1      
 Compute Stats, Diag. #    223  SIuice    vol(   0 ): 3.513E+14  Parms: UU      M1      
 Compute Stats, Diag. #    224  SIvice    vol(   0 ): 3.508E+14  Parms: VV      M1      
 Compute Stats, Diag. #    225  SItaux    vol(   0 ): 3.513E+14  Parms: UU      U1      
 Compute Stats, Diag. #    226  SItauy    vol(   0 ): 3.508E+14  Parms: VV      U1      
 cg2d: Sum(rhs),rhsMax =  -5.46456777594229E+01  3.00488637925984E-01
 Compute Stats, Diag. #    214  SIarea    vol(   0 ): 3.580E+14  Parms: SM      M1      
 Compute Stats, Diag. #    217  SIheff    vol(   0 ): 3.580E+14  Parms: SM      M1      
 Compute Stats, Diag. #    219  SIhsnow   vol(   0 ): 3.580E+14  Parms: SM      M1      
 Compute Stats, Diag. #     83  sIceLoad  vol(   0 ): 3.580E+14  Parms: SM      U1      
 Compute Stats, Diag. #    223  SIuice    vol(   0 ): 3.513E+14  Parms: UU      M1      
 Compute Stats, Diag. #    224  SIvice    vol(   0 ): 3.508E+14  Parms: VV      M1      
 Compute Stats, Diag. #    225  SItaux    vol(   0 ): 3.513E+14  Parms: UU      U1      
 Compute Stats, Diag. #    226  SItauy    vol(   0 ): 3.508E+14  Parms: VV      U1      
 cg2d: Sum(rhs),rhsMax =  -5.47443480963022E+01  3.00452072664226E-01
 Compute Stats, Diag. #    214  SIarea    vol(   0 ): 3.580E+14  Parms: SM      M1      
 Compute Stats, Diag. #    217  SIheff    vol(   0 ): 3.580E+14  Parms: SM      M1      
 Compute Stats, Diag. #    219  SIhsnow   vol(   0 ): 3.580E+14  Parms: SM      M1      
 Compute Stats, Diag. #     83  sIceLoad  vol(   0 ): 3.580E+14  Parms: SM      U1      
 Compute Stats, Diag. #    223  SIuice    vol(   0 ): 3.513E+14  Parms: UU      M1      
 Compute Stats, Diag. #    224  SIvice    vol(   0 ): 3.508E+14  Parms: VV      M1      
 Compute Stats, Diag. #    225  SItaux    vol(   0 ): 3.513E+14  Parms: UU      U1      
 Compute Stats, Diag. #    226  SItauy    vol(   0 ): 3.508E+14  Parms: VV      U1      
 cg2d: Sum(rhs),rhsMax =  -5.48586472288378E+01  3.00416281205247E-01
 Computing Diagnostic #     86  oceQnet      Counter:       4   Parms: SM      U1      
 Computing Diagnostic #     87  oceQsw       Counter:       4   Parms: SM      U1      
 Computing Diagnostic #     84  oceFWflx     Counter:       4   Parms: SM      U1      
 Computing Diagnostic #     85  oceSflux     Counter:       4   Parms: SM      U1      
 Computing Diagnostic #     80  oceTAUX      Counter:       4   Parms: UU      U1      
           Vector  Mate for  oceTAUX      Diagnostic #     81  oceTAUY  exists 
 Computing Diagnostic #     81  oceTAUY      Counter:       4   Parms: VV      U1      
           Vector  Mate for  oceTAUY      Diagnostic #     80  oceTAUX  exists 
 Computing Diagnostic #     26  THETA        Counter:       4   Parms: SMR     MR      
 Computing Diagnostic #     27  SALT         Counter:       4   Parms: SMR     MR      
 Computing Diagnostic #     30  UVEL         Counter:       4   Parms: UUR     MR      
           Vector  Mate for  UVEL         Diagnostic #     31  VVEL     exists 
 Computing Diagnostic #     31  VVEL         Counter:       4   Parms: VVR     MR      
           Vector  Mate for  VVEL         Diagnostic #     30  UVEL     exists 
 Computing Diagnostic #    214  SIarea       Counter:       4   Parms: SM      M1      
 Computing Diagnostic #    217  SIheff       Counter:       4   Parms: SM      M1      
 Computing Diagnostic #    219  SIhsnow      Counter:       4   Parms: SM      M1      
 Computing Diagnostic #     83  sIceLoad     Counter:       4   Parms: SM      U1      
 Computing Diagnostic #    223  SIuice       Counter:       4   Parms: UU      M1      
           Vector  Mate for  SIuice       Diagnostic #    224  SIvice   exists 
 Computing Diagnostic #    224  SIvice       Counter:       4   Parms: VV      M1      
           Vector  Mate for  SIvice       Diagnostic #    223  SIuice   exists 
 Computing Diagnostic #    225  SItaux       Counter:       4   Parms: UU      U1      
           Vector  Mate for  SItaux       Diagnostic #    226  SItauy   exists 
 Computing Diagnostic #    226  SItauy       Counter:       4   Parms: VV      U1      
           Vector  Mate for  SItauy       Diagnostic #    225  SItaux   exists 
 Computing Diagnostic #    285  SIareaN      Counter:       4   Parms: SM      MX      
 Computing Diagnostic #    284  SIheffN      Counter:       4   Parms: SM      MX      
 Computing Diagnostic #    286  SIhsnowN     Counter:       4   Parms: SM      MX      
 Compute Stats, Diag. #    214  SIarea    vol(   0 ): 3.580E+14  Parms: SM      M1      
 Compute Stats, Diag. #    217  SIheff    vol(   0 ): 3.580E+14  Parms: SM      M1      
 Compute Stats, Diag. #    219  SIhsnow   vol(   0 ): 3.580E+14  Parms: SM      M1      
 Compute Stats, Diag. #     83  sIceLoad  vol(   0 ): 3.580E+14  Parms: SM      U1      
 Compute Stats, Diag. #    223  SIuice    vol(   0 ): 3.513E+14  Parms: UU      M1      
 Compute Stats, Diag. #    224  SIvice    vol(   0 ): 3.508E+14  Parms: VV      M1      
 Compute Stats, Diag. #    225  SItaux    vol(   0 ): 3.513E+14  Parms: UU      U1      
 Compute Stats, Diag. #    226  SItauy    vol(   0 ): 3.508E+14  Parms: VV      U1      
 cg2d: Sum(rhs),rhsMax =  -5.49643688284838E+01  3.00383902990791E-01
 Compute Stats, Diag. #    214  SIarea    vol(   0 ): 3.580E+14  Parms: SM      M1      
 Compute Stats, Diag. #    217  SIheff    vol(   0 ): 3.580E+14  Parms: SM      M1      
 Compute Stats, Diag. #    219  SIhsnow   vol(   0 ): 3.580E+14  Parms: SM      M1      
 Compute Stats, Diag. #     83  sIceLoad  vol(   0 ): 3.580E+14  Parms: SM      U1      
 Compute Stats, Diag. #    223  SIuice    vol(   0 ): 3.513E+14  Parms: UU      M1      
 Compute Stats, Diag. #    224  SIvice    vol(   0 ): 3.508E+14  Parms: VV      M1      
 Compute Stats, Diag. #    225  SItaux    vol(   0 ): 3.513E+14  Parms: UU      U1      
 Compute Stats, Diag. #    226  SItauy    vol(   0 ): 3.508E+14  Parms: VV      U1      
 cg2d: Sum(rhs),rhsMax =  -5.50717655072429E+01  3.00353434139617E-01
 Compute Stats, Diag. #    214  SIarea    vol(   0 ): 3.580E+14  Parms: SM      M1      
 Compute Stats, Diag. #    217  SIheff    vol(   0 ): 3.580E+14  Parms: SM      M1      
 Compute Stats, Diag. #    219  SIhsnow   vol(   0 ): 3.580E+14  Parms: SM      M1      
 Compute Stats, Diag. #     83  sIceLoad  vol(   0 ): 3.580E+14  Parms: SM      U1      
 Compute Stats, Diag. #    223  SIuice    vol(   0 ): 3.513E+14  Parms: UU      M1      
 Compute Stats, Diag. #    224  SIvice    vol(   0 ): 3.508E+14  Parms: VV      M1      
 Compute Stats, Diag. #    225  SItaux    vol(   0 ): 3.513E+14  Parms: UU      U1      
 Compute Stats, Diag. #    226  SItauy    vol(   0 ): 3.508E+14  Parms: VV      U1      
 cg2d: Sum(rhs),rhsMax =  -5.51941639030365E+01  3.00327377461011E-01
 Compute Stats, Diag. #    214  SIarea    vol(   0 ): 3.580E+14  Parms: SM      M1      
 Compute Stats, Diag. #    217  SIheff    vol(   0 ): 3.580E+14  Parms: SM      M1      
 Compute Stats, Diag. #    219  SIhsnow   vol(   0 ): 3.580E+14  Parms: SM      M1      
 Compute Stats, Diag. #     83  sIceLoad  vol(   0 ): 3.580E+14  Parms: SM      U1      
 Compute Stats, Diag. #    223  SIuice    vol(   0 ): 3.513E+14  Parms: UU      M1      
 Compute Stats, Diag. #    224  SIvice    vol(   0 ): 3.508E+14  Parms: VV      M1      
 Compute Stats, Diag. #    225  SItaux    vol(   0 ): 3.513E+14  Parms: UU      U1      
 Compute Stats, Diag. #    226  SItauy    vol(   0 ): 3.508E+14  Parms: VV      U1      
 cg2d: Sum(rhs),rhsMax =  -5.53128640321722E+01  3.00306147934378E-01
(PID.TID 0000.0001)      cg2d_init_res =   3.97171171316770E-02
(PID.TID 0000.0001)      cg2d_iters(min,last) =      -1      24
(PID.TID 0000.0001)      cg2d_last_res =   2.63406872513103E-05
(PID.TID 0000.0001) // =======================================================
(PID.TID 0000.0001) // Begin MONITOR dynamic field statistics
(PID.TID 0000.0001) // =======================================================
(PID.TID 0000.0001) %MON time_tsnumber                =                  1224
(PID.TID 0000.0001) %MON time_secondsf                =   1.1016000000000E+06
(PID.TID 0000.0001) %MON dynstat_eta_max              =   1.0183791492056E+00
(PID.TID 0000.0001) %MON dynstat_eta_min              =  -1.8536555799071E+00
(PID.TID 0000.0001) %MON dynstat_eta_mean             =   1.7497225469040E-03
(PID.TID 0000.0001) %MON dynstat_eta_sd               =   6.2591847141839E-01
(PID.TID 0000.0001) %MON dynstat_eta_del2             =   5.1391094822891E-05
(PID.TID 0000.0001) %MON dynstat_uvel_max             =   6.4973968313778E-01
(PID.TID 0000.0001) %MON dynstat_uvel_min             =  -9.1653692276742E-01
(PID.TID 0000.0001) %MON dynstat_uvel_mean            =   1.3887585136057E-03
(PID.TID 0000.0001) %MON dynstat_uvel_sd              =   1.7975961062027E-02
(PID.TID 0000.0001) %MON dynstat_uvel_del2            =   7.0643536994950E-06
(PID.TID 0000.0001) %MON dynstat_vvel_max             =   6.6122207718984E-01
(PID.TID 0000.0001) %MON dynstat_vvel_min             =  -1.0648383810089E+00
(PID.TID 0000.0001) %MON dynstat_vvel_mean            =   1.0761437421344E-03
(PID.TID 0000.0001) %MON dynstat_vvel_sd              =   1.9563669043668E-02
(PID.TID 0000.0001) %MON dynstat_vvel_del2            =   7.3645867001411E-06
(PID.TID 0000.0001) %MON dynstat_wvel_max             =   3.2046094349658E-04
(PID.TID 0000.0001) %MON dynstat_wvel_min             =  -7.5900056290366E-04
(PID.TID 0000.0001) %MON dynstat_wvel_mean            =   7.0265263958799E-09
(PID.TID 0000.0001) %MON dynstat_wvel_sd              =   1.7041105560116E-05
(PID.TID 0000.0001) %MON dynstat_wvel_del2            =   1.4370825698917E-08
(PID.TID 0000.0001) %MON dynstat_theta_max            =   3.1445235718403E+01
(PID.TID 0000.0001) %MON dynstat_theta_min            =  -2.0395137333834E+00
(PID.TID 0000.0001) %MON dynstat_theta_mean           =   3.5900196476016E+00
(PID.TID 0000.0001) %MON dynstat_theta_sd             =   4.4367472800772E+00
(PID.TID 0000.0001) %MON dynstat_theta_del2           =   8.9302440762015E-05
(PID.TID 0000.0001) %MON dynstat_salt_max             =   4.0711552864917E+01
(PID.TID 0000.0001) %MON dynstat_salt_min             =   7.3288029211850E+00
(PID.TID 0000.0001) %MON dynstat_salt_mean            =   3.4725556059302E+01
(PID.TID 0000.0001) %MON dynstat_salt_sd              =   3.7714714667207E-01
(PID.TID 0000.0001) %MON dynstat_salt_del2            =   3.6332462070790E-05
(PID.TID 0000.0001) %MON dynstat_sst_max              =   3.1445220180903E+01
(PID.TID 0000.0001) %MON dynstat_sst_min              =  -1.8054976432447E+00
(PID.TID 0000.0001) %MON dynstat_sst_mean             =   1.8435852667756E+01
(PID.TID 0000.0001) %MON dynstat_sst_sd               =   1.0310822397262E+01
(PID.TID 0000.0001) %MON dynstat_sst_del2             =   7.8797287117307E-04
(PID.TID 0000.0001) %MON dynstat_sss_max              =   3.9098003946912E+01
(PID.TID 0000.0001) %MON dynstat_sss_min              =   7.3288029211850E+00
(PID.TID 0000.0001) %MON dynstat_sss_mean             =   3.4701800324556E+01
(PID.TID 0000.0001) %MON dynstat_sss_sd               =   1.1868120462730E+00
(PID.TID 0000.0001) %MON dynstat_sss_del2             =   1.0773534082767E-03
(PID.TID 0000.0001) %MON forcing_qnet_max             =   7.8783374023438E+02
(PID.TID 0000.0001) %MON forcing_qnet_min             =  -7.9429876863951E+02
(PID.TID 0000.0001) %MON forcing_qnet_mean            =   1.1134545168717E+01
(PID.TID 0000.0001) %MON forcing_qnet_sd              =   2.1636984851901E+02
(PID.TID 0000.0001) %MON forcing_qnet_del2            =   3.0086658418900E-01
(PID.TID 0000.0001) %MON forcing_qsw_max              =   0.0000000000000E+00
(PID.TID 0000.0001) %MON forcing_qsw_min              =  -1.0893684010193E+02
(PID.TID 0000.0001) %MON forcing_qsw_mean             =  -1.7022507518202E+01
(PID.TID 0000.0001) %MON forcing_qsw_sd               =   2.9217483594822E+01
(PID.TID 0000.0001) %MON forcing_qsw_del2             =   2.1360845946825E-02
(PID.TID 0000.0001) %MON forcing_empmr_max            =   5.7549373013899E-04
(PID.TID 0000.0001) %MON forcing_empmr_min            =  -6.6465742886066E-02
(PID.TID 0000.0001) %MON forcing_empmr_mean           =  -4.2930613878760E-06
(PID.TID 0000.0001) %MON forcing_empmr_sd             =   2.8569826744215E-04
(PID.TID 0000.0001) %MON forcing_empmr_del2           =   2.9932870993487E-06
(PID.TID 0000.0001) %MON forcing_fu_max               =   9.0557289123536E-01
(PID.TID 0000.0001) %MON forcing_fu_min               =  -8.0134680867195E-01
(PID.TID 0000.0001) %MON forcing_fu_mean              =   4.6355656982377E-03
(PID.TID 0000.0001) %MON forcing_fu_sd                =   1.1394660880755E-01
(PID.TID 0000.0001) %MON forcing_fu_del2              =   1.4393379486324E-04
(PID.TID 0000.0001) %MON forcing_fv_max               =   1.0117868185043E+00
(PID.TID 0000.0001) %MON forcing_fv_min               =  -8.0071967840195E-01
(PID.TID 0000.0001) %MON forcing_fv_mean              =  -6.3100492533177E-03
(PID.TID 0000.0001) %MON forcing_fv_sd                =   1.1894888726757E-01
(PID.TID 0000.0001) %MON forcing_fv_del2              =   1.7469533184093E-04
(PID.TID 0000.0001) %MON trAdv_CFL_u_max              =   1.2465512916520E-02
(PID.TID 0000.0001) %MON trAdv_CFL_v_max              =   1.3090716240137E-02
(PID.TID 0000.0001) %MON trAdv_CFL_w_max              =   2.1027554134805E-02
(PID.TID 0000.0001) %MON advcfl_uvel_max              =   1.0770245139000E-02
(PID.TID 0000.0001) %MON advcfl_vvel_max              =   1.2917272681206E-02
(PID.TID 0000.0001) %MON advcfl_wvel_max              =   2.3213106417772E-02
(PID.TID 0000.0001) %MON advcfl_W_hf_max              =   2.4346367983941E-02
(PID.TID 0000.0001) %MON pe_b_mean                    =   5.1534373996882E-04
(PID.TID 0000.0001) %MON ke_max                       =   6.0993941971843E-01
(PID.TID 0000.0001) %MON ke_mean                      =   3.4185769223429E-04
(PID.TID 0000.0001) %MON ke_vol                       =   1.3349985020199E+18
(PID.TID 0000.0001) %MON vort_r_min                   =  -1.4673460504179E-05
(PID.TID 0000.0001) %MON vort_r_max                   =   1.6925583128749E-05
(PID.TID 0000.0001) %MON vort_a_mean                  =  -1.9727864647440E-05
(PID.TID 0000.0001) %MON vort_a_sd                    =   7.4542989224442E-05
(PID.TID 0000.0001) %MON vort_p_mean                  =  -2.1760523748842E-05
(PID.TID 0000.0001) %MON vort_p_sd                    =   9.7247264070693E-05
(PID.TID 0000.0001) %MON surfExpan_theta_mean         =   1.0771939185222E-07
(PID.TID 0000.0001) %MON surfExpan_salt_mean          =   3.8743980660186E-08
(PID.TID 0000.0001) // =======================================================
(PID.TID 0000.0001) // End MONITOR dynamic field statistics
(PID.TID 0000.0001) // =======================================================
(PID.TID 0000.0001) // =======================================================
(PID.TID 0000.0001) // Begin MONITOR SEAICE statistics
(PID.TID 0000.0001) // =======================================================
(PID.TID 0000.0001) %MON seaice_tsnumber              =                  1224
(PID.TID 0000.0001) %MON seaice_time_sec              =   1.1016000000000E+06
(PID.TID 0000.0001) %MON seaice_uice_max              =   4.0000000000000E-01
(PID.TID 0000.0001) %MON seaice_uice_min              =  -4.0000000000000E-01
(PID.TID 0000.0001) %MON seaice_uice_mean             =  -8.3054598624025E-03
(PID.TID 0000.0001) %MON seaice_uice_sd               =   1.9802383574176E-01
(PID.TID 0000.0001) %MON seaice_uice_del2             =   2.2931571122150E-04
(PID.TID 0000.0001) %MON seaice_vice_max              =   4.0000000000000E-01
(PID.TID 0000.0001) %MON seaice_vice_min              =  -4.0000000000000E-01
(PID.TID 0000.0001) %MON seaice_vice_mean             =  -2.1960776359499E-02
(PID.TID 0000.0001) %MON seaice_vice_sd               =   2.1302038025672E-01
(PID.TID 0000.0001) %MON seaice_vice_del2             =   2.3932563818061E-04
(PID.TID 0000.0001) %MON seaice_area_max              =   9.9999999813735E-01
(PID.TID 0000.0001) %MON seaice_area_min              =   0.0000000000000E+00
(PID.TID 0000.0001) %MON seaice_area_mean             =   6.4280753176488E-02
(PID.TID 0000.0001) %MON seaice_area_sd               =   2.2704571459039E-01
(PID.TID 0000.0001) %MON seaice_area_del2             =   3.6888155321783E-04
(PID.TID 0000.0001) %MON seaice_heff_max              =   2.4877296438324E+01
(PID.TID 0000.0001) %MON seaice_heff_min              =   0.0000000000000E+00
(PID.TID 0000.0001) %MON seaice_heff_mean             =   2.1116866521422E-01
(PID.TID 0000.0001) %MON seaice_heff_sd               =   1.0653135474735E+00
(PID.TID 0000.0001) %MON seaice_heff_del2             =   3.8058322860930E-03
(PID.TID 0000.0001) %MON seaice_hsnow_max             =   8.2169375181547E+00
(PID.TID 0000.0001) %MON seaice_hsnow_min             =   0.0000000000000E+00
(PID.TID 0000.0001) %MON seaice_hsnow_mean            =   2.3856559958547E-02
(PID.TID 0000.0001) %MON seaice_hsnow_sd              =   1.5566747668757E-01
(PID.TID 0000.0001) %MON seaice_hsnow_del2            =   1.2324247161128E-03
(PID.TID 0000.0001) // =======================================================
(PID.TID 0000.0001) // End MONITOR SEAICE statistics
(PID.TID 0000.0001) // =======================================================
 Computing Diagnostic #     86  oceQnet      Counter:       4   Parms: SM      U1      
 Computing Diagnostic #     87  oceQsw       Counter:       4   Parms: SM      U1      
 Computing Diagnostic #     84  oceFWflx     Counter:       4   Parms: SM      U1      
 Computing Diagnostic #     85  oceSflux     Counter:       4   Parms: SM      U1      
 Computing Diagnostic #     80  oceTAUX      Counter:       4   Parms: UU      U1      
           Vector  Mate for  oceTAUX      Diagnostic #     81  oceTAUY  exists 
 Computing Diagnostic #     81  oceTAUY      Counter:       4   Parms: VV      U1      
           Vector  Mate for  oceTAUY      Diagnostic #     80  oceTAUX  exists 
 Computing Diagnostic #     26  THETA        Counter:       4   Parms: SMR     MR      
 Computing Diagnostic #     27  SALT         Counter:       4   Parms: SMR     MR      
 Computing Diagnostic #     30  UVEL         Counter:       4   Parms: UUR     MR      
           Vector  Mate for  UVEL         Diagnostic #     31  VVEL     exists 
 Computing Diagnostic #     31  VVEL         Counter:       4   Parms: VVR     MR      
           Vector  Mate for  VVEL         Diagnostic #     30  UVEL     exists 
 Computing Diagnostic #    214  SIarea       Counter:       4   Parms: SM      M1      
 Computing Diagnostic #    217  SIheff       Counter:       4   Parms: SM      M1      
 Computing Diagnostic #    219  SIhsnow      Counter:       4   Parms: SM      M1      
 Computing Diagnostic #     83  sIceLoad     Counter:       4   Parms: SM      U1      
 Computing Diagnostic #    223  SIuice       Counter:       4   Parms: UU      M1      
           Vector  Mate for  SIuice       Diagnostic #    224  SIvice   exists 
 Computing Diagnostic #    224  SIvice       Counter:       4   Parms: VV      M1      
           Vector  Mate for  SIvice       Diagnostic #    223  SIuice   exists 
 Computing Diagnostic #    225  SItaux       Counter:       4   Parms: UU      U1      
           Vector  Mate for  SItaux       Diagnostic #    226  SItauy   exists 
 Computing Diagnostic #    226  SItauy       Counter:       4   Parms: VV      U1      
           Vector  Mate for  SItauy       Diagnostic #    225  SItaux   exists 
 Computing Diagnostic #    285  SIareaN      Counter:       4   Parms: SM      MX      
 Computing Diagnostic #    284  SIheffN      Counter:       4   Parms: SM      MX      
 Computing Diagnostic #    286  SIhsnowN     Counter:       4   Parms: SM      MX      
 Compute Stats, Diag. #    214  SIarea    vol(   0 ): 3.580E+14  Parms: SM      M1      
 Compute Stats, Diag. #    217  SIheff    vol(   0 ): 3.580E+14  Parms: SM      M1      
 Compute Stats, Diag. #    219  SIhsnow   vol(   0 ): 3.580E+14  Parms: SM      M1      
 Compute Stats, Diag. #     83  sIceLoad  vol(   0 ): 3.580E+14  Parms: SM      U1      
 Compute Stats, Diag. #    223  SIuice    vol(   0 ): 3.513E+14  Parms: UU      M1      
 Compute Stats, Diag. #    224  SIvice    vol(   0 ): 3.508E+14  Parms: VV      M1      
 Compute Stats, Diag. #    225  SItaux    vol(   0 ): 3.513E+14  Parms: UU      U1      
 Compute Stats, Diag. #    226  SItauy    vol(   0 ): 3.508E+14  Parms: VV      U1      
 cg2d: Sum(rhs),rhsMax =  -5.54275842212923E+01  3.00287296400055E-01
 Compute Stats, Diag. #    214  SIarea    vol(   0 ): 3.580E+14  Parms: SM      M1      
 Compute Stats, Diag. #    217  SIheff    vol(   0 ): 3.580E+14  Parms: SM      M1      
 Compute Stats, Diag. #    219  SIhsnow   vol(   0 ): 3.580E+14  Parms: SM      M1      
 Compute Stats, Diag. #     83  sIceLoad  vol(   0 ): 3.580E+14  Parms: SM      U1      
 Compute Stats, Diag. #    223  SIuice    vol(   0 ): 3.513E+14  Parms: UU      M1      
 Compute Stats, Diag. #    224  SIvice    vol(   0 ): 3.508E+14  Parms: VV      M1      
 Compute Stats, Diag. #    225  SItaux    vol(   0 ): 3.513E+14  Parms: UU      U1      
 Compute Stats, Diag. #    226  SItauy    vol(   0 ): 3.508E+14  Parms: VV      U1      
 cg2d: Sum(rhs),rhsMax =  -5.55405927010981E+01  3.00275679840038E-01
 Compute Stats, Diag. #    214  SIarea    vol(   0 ): 3.580E+14  Parms: SM      M1      
 Compute Stats, Diag. #    217  SIheff    vol(   0 ): 3.580E+14  Parms: SM      M1      
 Compute Stats, Diag. #    219  SIhsnow   vol(   0 ): 3.580E+14  Parms: SM      M1      
 Compute Stats, Diag. #     83  sIceLoad  vol(   0 ): 3.580E+14  Parms: SM      U1      
 Compute Stats, Diag. #    223  SIuice    vol(   0 ): 3.513E+14  Parms: UU      M1      
 Compute Stats, Diag. #    224  SIvice    vol(   0 ): 3.508E+14  Parms: VV      M1      
 Compute Stats, Diag. #    225  SItaux    vol(   0 ): 3.513E+14  Parms: UU      U1      
 Compute Stats, Diag. #    226  SItauy    vol(   0 ): 3.508E+14  Parms: VV      U1      
 cg2d: Sum(rhs),rhsMax =  -5.56526111826004E+01  3.00269076620797E-01
 Compute Stats, Diag. #    214  SIarea    vol(   0 ): 3.580E+14  Parms: SM      M1      
 Compute Stats, Diag. #    217  SIheff    vol(   0 ): 3.580E+14  Parms: SM      M1      
 Compute Stats, Diag. #    219  SIhsnow   vol(   0 ): 3.580E+14  Parms: SM      M1      
 Compute Stats, Diag. #     83  sIceLoad  vol(   0 ): 3.580E+14  Parms: SM      U1      
 Compute Stats, Diag. #    223  SIuice    vol(   0 ): 3.513E+14  Parms: UU      M1      
 Compute Stats, Diag. #    224  SIvice    vol(   0 ): 3.508E+14  Parms: VV      M1      
 Compute Stats, Diag. #    225  SItaux    vol(   0 ): 3.513E+14  Parms: UU      U1      
 Compute Stats, Diag. #    226  SItauy    vol(   0 ): 3.508E+14  Parms: VV      U1      
 cg2d: Sum(rhs),rhsMax =  -5.57825540276287E+01  3.00265949659268E-01
 Computing Diagnostic #     86  oceQnet      Counter:       4   Parms: SM      U1      
 Computing Diagnostic #     87  oceQsw       Counter:       4   Parms: SM      U1      
 Computing Diagnostic #     84  oceFWflx     Counter:       4   Parms: SM      U1      
 Computing Diagnostic #     85  oceSflux     Counter:       4   Parms: SM      U1      
 Computing Diagnostic #     80  oceTAUX      Counter:       4   Parms: UU      U1      
           Vector  Mate for  oceTAUX      Diagnostic #     81  oceTAUY  exists 
 Computing Diagnostic #     81  oceTAUY      Counter:       4   Parms: VV      U1      
           Vector  Mate for  oceTAUY      Diagnostic #     80  oceTAUX  exists 
 Computing Diagnostic #     26  THETA        Counter:       4   Parms: SMR     MR      
 Computing Diagnostic #     27  SALT         Counter:       4   Parms: SMR     MR      
 Computing Diagnostic #     30  UVEL         Counter:       4   Parms: UUR     MR      
           Vector  Mate for  UVEL         Diagnostic #     31  VVEL     exists 
 Computing Diagnostic #     31  VVEL         Counter:       4   Parms: VVR     MR      
           Vector  Mate for  VVEL         Diagnostic #     30  UVEL     exists 
 Computing Diagnostic #    214  SIarea       Counter:       4   Parms: SM      M1      
 Computing Diagnostic #    217  SIheff       Counter:       4   Parms: SM      M1      
 Computing Diagnostic #    219  SIhsnow      Counter:       4   Parms: SM      M1      
 Computing Diagnostic #     83  sIceLoad     Counter:       4   Parms: SM      U1      
 Computing Diagnostic #    223  SIuice       Counter:       4   Parms: UU      M1      
           Vector  Mate for  SIuice       Diagnostic #    224  SIvice   exists 
 Computing Diagnostic #    224  SIvice       Counter:       4   Parms: VV      M1      
           Vector  Mate for  SIvice       Diagnostic #    223  SIuice   exists 
 Computing Diagnostic #    225  SItaux       Counter:       4   Parms: UU      U1      
           Vector  Mate for  SItaux       Diagnostic #    226  SItauy   exists 
 Computing Diagnostic #    226  SItauy       Counter:       4   Parms: VV      U1      
           Vector  Mate for  SItauy       Diagnostic #    225  SItaux   exists 
 Computing Diagnostic #    285  SIareaN      Counter:       4   Parms: SM      MX      
 Computing Diagnostic #    284  SIheffN      Counter:       4   Parms: SM      MX      
 Computing Diagnostic #    286  SIhsnowN     Counter:       4   Parms: SM      MX      
 Compute Stats, Diag. #    214  SIarea    vol(   0 ): 3.580E+14  Parms: SM      M1      
 Compute Stats, Diag. #    217  SIheff    vol(   0 ): 3.580E+14  Parms: SM      M1      
 Compute Stats, Diag. #    219  SIhsnow   vol(   0 ): 3.580E+14  Parms: SM      M1      
 Compute Stats, Diag. #     83  sIceLoad  vol(   0 ): 3.580E+14  Parms: SM      U1      
 Compute Stats, Diag. #    223  SIuice    vol(   0 ): 3.513E+14  Parms: UU      M1      
 Compute Stats, Diag. #    224  SIvice    vol(   0 ): 3.508E+14  Parms: VV      M1      
 Compute Stats, Diag. #    225  SItaux    vol(   0 ): 3.513E+14  Parms: UU      U1      
 Compute Stats, Diag. #    226  SItauy    vol(   0 ): 3.508E+14  Parms: VV      U1      
 cg2d: Sum(rhs),rhsMax =  -5.59064100894792E+01  3.00269305683655E-01
 Compute Stats, Diag. #    214  SIarea    vol(   0 ): 3.580E+14  Parms: SM      M1      
 Compute Stats, Diag. #    217  SIheff    vol(   0 ): 3.580E+14  Parms: SM      M1      
 Compute Stats, Diag. #    219  SIhsnow   vol(   0 ): 3.580E+14  Parms: SM      M1      
 Compute Stats, Diag. #     83  sIceLoad  vol(   0 ): 3.580E+14  Parms: SM      U1      
 Compute Stats, Diag. #    223  SIuice    vol(   0 ): 3.513E+14  Parms: UU      M1      
 Compute Stats, Diag. #    224  SIvice    vol(   0 ): 3.508E+14  Parms: VV      M1      
 Compute Stats, Diag. #    225  SItaux    vol(   0 ): 3.513E+14  Parms: UU      U1      
 Compute Stats, Diag. #    226  SItauy    vol(   0 ): 3.508E+14  Parms: VV      U1      
 cg2d: Sum(rhs),rhsMax =  -5.60233448444621E+01  3.00275482644793E-01
 Compute Stats, Diag. #    214  SIarea    vol(   0 ): 3.580E+14  Parms: SM      M1      
 Compute Stats, Diag. #    217  SIheff    vol(   0 ): 3.580E+14  Parms: SM      M1      
 Compute Stats, Diag. #    219  SIhsnow   vol(   0 ): 3.580E+14  Parms: SM      M1      
 Compute Stats, Diag. #     83  sIceLoad  vol(   0 ): 3.580E+14  Parms: SM      U1      
 Compute Stats, Diag. #    223  SIuice    vol(   0 ): 3.513E+14  Parms: UU      M1      
 Compute Stats, Diag. #    224  SIvice    vol(   0 ): 3.508E+14  Parms: VV      M1      
 Compute Stats, Diag. #    225  SItaux    vol(   0 ): 3.513E+14  Parms: UU      U1      
 Compute Stats, Diag. #    226  SItauy    vol(   0 ): 3.508E+14  Parms: VV      U1      
 cg2d: Sum(rhs),rhsMax =  -5.61387692661536E+01  3.00287362832244E-01
 Compute Stats, Diag. #    214  SIarea    vol(   0 ): 3.580E+14  Parms: SM      M1      
 Compute Stats, Diag. #    217  SIheff    vol(   0 ): 3.580E+14  Parms: SM      M1      
 Compute Stats, Diag. #    219  SIhsnow   vol(   0 ): 3.580E+14  Parms: SM      M1      
 Compute Stats, Diag. #     83  sIceLoad  vol(   0 ): 3.580E+14  Parms: SM      U1      
 Compute Stats, Diag. #    223  SIuice    vol(   0 ): 3.513E+14  Parms: UU      M1      
 Compute Stats, Diag. #    224  SIvice    vol(   0 ): 3.508E+14  Parms: VV      M1      
 Compute Stats, Diag. #    225  SItaux    vol(   0 ): 3.513E+14  Parms: UU      U1      
 Compute Stats, Diag. #    226  SItauy    vol(   0 ): 3.508E+14  Parms: VV      U1      
 cg2d: Sum(rhs),rhsMax =  -5.62587265373707E+01  3.00301620058269E-01
(PID.TID 0000.0001)      cg2d_init_res =   3.96209198426101E-02
(PID.TID 0000.0001)      cg2d_iters(min,last) =      -1      25
(PID.TID 0000.0001)      cg2d_last_res =   2.12670243193487E-05
(PID.TID 0000.0001) // =======================================================
(PID.TID 0000.0001) // Begin MONITOR dynamic field statistics
(PID.TID 0000.0001) // =======================================================
(PID.TID 0000.0001) %MON time_tsnumber                =                  1232
(PID.TID 0000.0001) %MON time_secondsf                =   1.1088000000000E+06
(PID.TID 0000.0001) %MON dynstat_eta_max              =   1.0192844207490E+00
(PID.TID 0000.0001) %MON dynstat_eta_min              =  -1.8561643397704E+00
(PID.TID 0000.0001) %MON dynstat_eta_mean             =   1.7796431988278E-03
(PID.TID 0000.0001) %MON dynstat_eta_sd               =   6.2596519146757E-01
(PID.TID 0000.0001) %MON dynstat_eta_del2             =   5.1460272392085E-05
(PID.TID 0000.0001) %MON dynstat_uvel_max             =   6.5110692558244E-01
(PID.TID 0000.0001) %MON dynstat_uvel_min             =  -9.2002322471336E-01
(PID.TID 0000.0001) %MON dynstat_uvel_mean            =   1.3871234884168E-03
(PID.TID 0000.0001) %MON dynstat_uvel_sd              =   1.7988128968868E-02
(PID.TID 0000.0001) %MON dynstat_uvel_del2            =   7.0921354998425E-06
(PID.TID 0000.0001) %MON dynstat_vvel_max             =   6.6758958486483E-01
(PID.TID 0000.0001) %MON dynstat_vvel_min             =  -1.0695893863004E+00
(PID.TID 0000.0001) %MON dynstat_vvel_mean            =   1.0836108010317E-03
(PID.TID 0000.0001) %MON dynstat_vvel_sd              =   1.9574528736654E-02
(PID.TID 0000.0001) %MON dynstat_vvel_del2            =   7.3969723453453E-06
(PID.TID 0000.0001) %MON dynstat_wvel_max             =   3.1824433465128E-04
(PID.TID 0000.0001) %MON dynstat_wvel_min             =  -7.5931219980386E-04
(PID.TID 0000.0001) %MON dynstat_wvel_mean            =   6.1144640184315E-09
(PID.TID 0000.0001) %MON dynstat_wvel_sd              =   1.7074272132397E-05
(PID.TID 0000.0001) %MON dynstat_wvel_del2            =   1.4438823407991E-08
(PID.TID 0000.0001) %MON dynstat_theta_max            =   3.1424451219209E+01
(PID.TID 0000.0001) %MON dynstat_theta_min            =  -2.0395059128788E+00
(PID.TID 0000.0001) %MON dynstat_theta_mean           =   3.5900164960302E+00
(PID.TID 0000.0001) %MON dynstat_theta_sd             =   4.4367495695670E+00
(PID.TID 0000.0001) %MON dynstat_theta_del2           =   8.9260374589505E-05
(PID.TID 0000.0001) %MON dynstat_salt_max             =   4.0711553309357E+01
(PID.TID 0000.0001) %MON dynstat_salt_min             =   7.1252988574057E+00
(PID.TID 0000.0001) %MON dynstat_salt_mean            =   3.4725555761888E+01
(PID.TID 0000.0001) %MON dynstat_salt_sd              =   3.7714936592842E-01
(PID.TID 0000.0001) %MON dynstat_salt_del2            =   3.6331903651890E-05
(PID.TID 0000.0001) %MON dynstat_sst_max              =   3.1424433991401E+01
(PID.TID 0000.0001) %MON dynstat_sst_min              =  -1.8054099128528E+00
(PID.TID 0000.0001) %MON dynstat_sst_mean             =   1.8437631665825E+01
(PID.TID 0000.0001) %MON dynstat_sst_sd               =   1.0312148338543E+01
(PID.TID 0000.0001) %MON dynstat_sst_del2             =   7.8594795584167E-04
(PID.TID 0000.0001) %MON dynstat_sss_max              =   3.9098034984210E+01
(PID.TID 0000.0001) %MON dynstat_sss_min              =   7.1252988574057E+00
(PID.TID 0000.0001) %MON dynstat_sss_mean             =   3.4701878949669E+01
(PID.TID 0000.0001) %MON dynstat_sss_sd               =   1.1870979442252E+00
(PID.TID 0000.0001) %MON dynstat_sss_del2             =   1.0758528913733E-03
(PID.TID 0000.0001) %MON forcing_qnet_max             =   5.8915026855469E+02
(PID.TID 0000.0001) %MON forcing_qnet_min             =  -7.5428911386551E+02
(PID.TID 0000.0001) %MON forcing_qnet_mean            =   3.6421702138912E+00
(PID.TID 0000.0001) %MON forcing_qnet_sd              =   2.0634159839913E+02
(PID.TID 0000.0001) %MON forcing_qnet_del2            =   2.9866162499629E-01
(PID.TID 0000.0001) %MON forcing_qsw_max              =   0.0000000000000E+00
(PID.TID 0000.0001) %MON forcing_qsw_min              =  -1.0797793647631E+02
(PID.TID 0000.0001) %MON forcing_qsw_mean             =  -1.8420875931473E+01
(PID.TID 0000.0001) %MON forcing_qsw_sd               =   2.7994014423077E+01
(PID.TID 0000.0001) %MON forcing_qsw_del2             =   2.1324153523691E-02
(PID.TID 0000.0001) %MON forcing_empmr_max            =   7.1777345146984E-04
(PID.TID 0000.0001) %MON forcing_empmr_min            =  -8.2676038146019E-02
(PID.TID 0000.0001) %MON forcing_empmr_mean           =  -4.3385288036929E-06
(PID.TID 0000.0001) %MON forcing_empmr_sd             =   3.4313607009171E-04
(PID.TID 0000.0001) %MON forcing_empmr_del2           =   3.5875393576746E-06
(PID.TID 0000.0001) %MON forcing_fu_max               =   9.3070417642593E-01
(PID.TID 0000.0001) %MON forcing_fu_min               =  -7.9970279335976E-01
(PID.TID 0000.0001) %MON forcing_fu_mean              =   4.6658820994564E-03
(PID.TID 0000.0001) %MON forcing_fu_sd                =   1.1568262601483E-01
(PID.TID 0000.0001) %MON forcing_fu_del2              =   1.4779745366735E-04
(PID.TID 0000.0001) %MON forcing_fv_max               =   1.1517643928528E+00
(PID.TID 0000.0001) %MON forcing_fv_min               =  -8.3085227012634E-01
(PID.TID 0000.0001) %MON forcing_fv_mean              =  -6.2547475647769E-03
(PID.TID 0000.0001) %MON forcing_fv_sd                =   1.2102422195500E-01
(PID.TID 0000.0001) %MON forcing_fv_del2              =   1.7952955170180E-04
(PID.TID 0000.0001) %MON trAdv_CFL_u_max              =   1.2428727737074E-02
(PID.TID 0000.0001) %MON trAdv_CFL_v_max              =   1.3290414656125E-02
(PID.TID 0000.0001) %MON trAdv_CFL_w_max              =   2.0933376309227E-02
(PID.TID 0000.0001) %MON advcfl_uvel_max              =   1.0933753280361E-02
(PID.TID 0000.0001) %MON advcfl_vvel_max              =   1.3037763557035E-02
(PID.TID 0000.0001) %MON advcfl_wvel_max              =   2.3123271543792E-02
(PID.TID 0000.0001) %MON advcfl_W_hf_max              =   2.4252196940490E-02
(PID.TID 0000.0001) %MON pe_b_mean                    =   5.1542080999055E-04
(PID.TID 0000.0001) %MON ke_max                       =   6.1895154912498E-01
(PID.TID 0000.0001) %MON ke_mean                      =   3.4227921850674E-04
(PID.TID 0000.0001) %MON ke_vol                       =   1.3349985127177E+18
(PID.TID 0000.0001) %MON vort_r_min                   =  -1.4601528457788E-05
(PID.TID 0000.0001) %MON vort_r_max                   =   1.6693104643578E-05
(PID.TID 0000.0001) %MON vort_a_mean                  =  -1.9727864647440E-05
(PID.TID 0000.0001) %MON vort_a_sd                    =   7.4542991535029E-05
(PID.TID 0000.0001) %MON vort_p_mean                  =  -2.1760523659076E-05
(PID.TID 0000.0001) %MON vort_p_sd                    =   9.7247163463761E-05
(PID.TID 0000.0001) %MON surfExpan_theta_mean         =   1.2488494184256E-07
(PID.TID 0000.0001) %MON surfExpan_salt_mean          =   4.5486178319177E-08
(PID.TID 0000.0001) // =======================================================
(PID.TID 0000.0001) // End MONITOR dynamic field statistics
(PID.TID 0000.0001) // =======================================================
(PID.TID 0000.0001) // =======================================================
(PID.TID 0000.0001) // Begin MONITOR SEAICE statistics
(PID.TID 0000.0001) // =======================================================
(PID.TID 0000.0001) %MON seaice_tsnumber              =                  1232
(PID.TID 0000.0001) %MON seaice_time_sec              =   1.1088000000000E+06
(PID.TID 0000.0001) %MON seaice_uice_max              =   4.0000000000000E-01
(PID.TID 0000.0001) %MON seaice_uice_min              =  -4.0000000000000E-01
(PID.TID 0000.0001) %MON seaice_uice_mean             =  -8.3054598624025E-03
(PID.TID 0000.0001) %MON seaice_uice_sd               =   1.9802383574176E-01
(PID.TID 0000.0001) %MON seaice_uice_del2             =   2.2931571122150E-04
(PID.TID 0000.0001) %MON seaice_vice_max              =   4.0000000000000E-01
(PID.TID 0000.0001) %MON seaice_vice_min              =  -4.0000000000000E-01
(PID.TID 0000.0001) %MON seaice_vice_mean             =  -2.1960776359499E-02
(PID.TID 0000.0001) %MON seaice_vice_sd               =   2.1302038025672E-01
(PID.TID 0000.0001) %MON seaice_vice_del2             =   2.3932563818061E-04
(PID.TID 0000.0001) %MON seaice_area_max              =   9.9999999813735E-01
(PID.TID 0000.0001) %MON seaice_area_min              =   0.0000000000000E+00
(PID.TID 0000.0001) %MON seaice_area_mean             =   6.4257617232295E-02
(PID.TID 0000.0001) %MON seaice_area_sd               =   2.2700496872350E-01
(PID.TID 0000.0001) %MON seaice_area_del2             =   3.6850137608554E-04
(PID.TID 0000.0001) %MON seaice_heff_max              =   2.4876039278461E+01
(PID.TID 0000.0001) %MON seaice_heff_min              =   0.0000000000000E+00
(PID.TID 0000.0001) %MON seaice_heff_mean             =   2.1114862917007E-01
(PID.TID 0000.0001) %MON seaice_heff_sd               =   1.0653001945106E+00
(PID.TID 0000.0001) %MON seaice_heff_del2             =   3.8052813333668E-03
(PID.TID 0000.0001) %MON seaice_hsnow_max             =   8.2165215824498E+00
(PID.TID 0000.0001) %MON seaice_hsnow_min             =   0.0000000000000E+00
(PID.TID 0000.0001) %MON seaice_hsnow_mean            =   2.3853903871338E-02
(PID.TID 0000.0001) %MON seaice_hsnow_sd              =   1.5565986517529E-01
(PID.TID 0000.0001) %MON seaice_hsnow_del2            =   1.2323440382983E-03
(PID.TID 0000.0001) // =======================================================
(PID.TID 0000.0001) // End MONITOR SEAICE statistics
(PID.TID 0000.0001) // =======================================================
 Computing Diagnostic #     86  oceQnet      Counter:       4   Parms: SM      U1      
 Computing Diagnostic #     87  oceQsw       Counter:       4   Parms: SM      U1      
 Computing Diagnostic #     84  oceFWflx     Counter:       4   Parms: SM      U1      
 Computing Diagnostic #     85  oceSflux     Counter:       4   Parms: SM      U1      
 Computing Diagnostic #     80  oceTAUX      Counter:       4   Parms: UU      U1      
           Vector  Mate for  oceTAUX      Diagnostic #     81  oceTAUY  exists 
 Computing Diagnostic #     81  oceTAUY      Counter:       4   Parms: VV      U1      
           Vector  Mate for  oceTAUY      Diagnostic #     80  oceTAUX  exists 
 Computing Diagnostic #     26  THETA        Counter:       4   Parms: SMR     MR      
 Computing Diagnostic #     27  SALT         Counter:       4   Parms: SMR     MR      
 Computing Diagnostic #     30  UVEL         Counter:       4   Parms: UUR     MR      
           Vector  Mate for  UVEL         Diagnostic #     31  VVEL     exists 
 Computing Diagnostic #     31  VVEL         Counter:       4   Parms: VVR     MR      
           Vector  Mate for  VVEL         Diagnostic #     30  UVEL     exists 
 Computing Diagnostic #    214  SIarea       Counter:       4   Parms: SM      M1      
 Computing Diagnostic #    217  SIheff       Counter:       4   Parms: SM      M1      
 Computing Diagnostic #    219  SIhsnow      Counter:       4   Parms: SM      M1      
 Computing Diagnostic #     83  sIceLoad     Counter:       4   Parms: SM      U1      
 Computing Diagnostic #    223  SIuice       Counter:       4   Parms: UU      M1      
           Vector  Mate for  SIuice       Diagnostic #    224  SIvice   exists 
 Computing Diagnostic #    224  SIvice       Counter:       4   Parms: VV      M1      
           Vector  Mate for  SIvice       Diagnostic #    223  SIuice   exists 
 Computing Diagnostic #    225  SItaux       Counter:       4   Parms: UU      U1      
           Vector  Mate for  SItaux       Diagnostic #    226  SItauy   exists 
 Computing Diagnostic #    226  SItauy       Counter:       4   Parms: VV      U1      
           Vector  Mate for  SItauy       Diagnostic #    225  SItaux   exists 
 Computing Diagnostic #    285  SIareaN      Counter:       4   Parms: SM      MX      
 Computing Diagnostic #    284  SIheffN      Counter:       4   Parms: SM      MX      
 Computing Diagnostic #    286  SIhsnowN     Counter:       4   Parms: SM      MX      
 Compute Stats, Diag. #    214  SIarea    vol(   0 ): 3.580E+14  Parms: SM      M1      
 Compute Stats, Diag. #    217  SIheff    vol(   0 ): 3.580E+14  Parms: SM      M1      
 Compute Stats, Diag. #    219  SIhsnow   vol(   0 ): 3.580E+14  Parms: SM      M1      
 Compute Stats, Diag. #     83  sIceLoad  vol(   0 ): 3.580E+14  Parms: SM      U1      
 Compute Stats, Diag. #    223  SIuice    vol(   0 ): 3.513E+14  Parms: UU      M1      
 Compute Stats, Diag. #    224  SIvice    vol(   0 ): 3.508E+14  Parms: VV      M1      
 Compute Stats, Diag. #    225  SItaux    vol(   0 ): 3.513E+14  Parms: UU      U1      
 Compute Stats, Diag. #    226  SItauy    vol(   0 ): 3.508E+14  Parms: VV      U1      
 cg2d: Sum(rhs),rhsMax =  -5.63778001088908E+01  3.00318427087996E-01
 Compute Stats, Diag. #    214  SIarea    vol(   0 ): 3.580E+14  Parms: SM      M1      
 Compute Stats, Diag. #    217  SIheff    vol(   0 ): 3.580E+14  Parms: SM      M1      
 Compute Stats, Diag. #    219  SIhsnow   vol(   0 ): 3.580E+14  Parms: SM      M1      
 Compute Stats, Diag. #     83  sIceLoad  vol(   0 ): 3.580E+14  Parms: SM      U1      
 Compute Stats, Diag. #    223  SIuice    vol(   0 ): 3.513E+14  Parms: UU      M1      
 Compute Stats, Diag. #    224  SIvice    vol(   0 ): 3.508E+14  Parms: VV      M1      
 Compute Stats, Diag. #    225  SItaux    vol(   0 ): 3.513E+14  Parms: UU      U1      
 Compute Stats, Diag. #    226  SItauy    vol(   0 ): 3.508E+14  Parms: VV      U1      
 cg2d: Sum(rhs),rhsMax =  -5.65070606705301E+01  3.00336194512213E-01
 Compute Stats, Diag. #    214  SIarea    vol(   0 ): 3.580E+14  Parms: SM      M1      
 Compute Stats, Diag. #    217  SIheff    vol(   0 ): 3.580E+14  Parms: SM      M1      
 Compute Stats, Diag. #    219  SIhsnow   vol(   0 ): 3.580E+14  Parms: SM      M1      
 Compute Stats, Diag. #     83  sIceLoad  vol(   0 ): 3.580E+14  Parms: SM      U1      
 Compute Stats, Diag. #    223  SIuice    vol(   0 ): 3.513E+14  Parms: UU      M1      
 Compute Stats, Diag. #    224  SIvice    vol(   0 ): 3.508E+14  Parms: VV      M1      
 Compute Stats, Diag. #    225  SItaux    vol(   0 ): 3.513E+14  Parms: UU      U1      
 Compute Stats, Diag. #    226  SItauy    vol(   0 ): 3.508E+14  Parms: VV      U1      
 cg2d: Sum(rhs),rhsMax =  -5.66350449149492E+01  3.00355340345757E-01
 Compute Stats, Diag. #    214  SIarea    vol(   0 ): 3.580E+14  Parms: SM      M1      
 Compute Stats, Diag. #    217  SIheff    vol(   0 ): 3.580E+14  Parms: SM      M1      
 Compute Stats, Diag. #    219  SIhsnow   vol(   0 ): 3.580E+14  Parms: SM      M1      
 Compute Stats, Diag. #     83  sIceLoad  vol(   0 ): 3.580E+14  Parms: SM      U1      
 Compute Stats, Diag. #    223  SIuice    vol(   0 ): 3.513E+14  Parms: UU      M1      
 Compute Stats, Diag. #    224  SIvice    vol(   0 ): 3.508E+14  Parms: VV      M1      
 Compute Stats, Diag. #    225  SItaux    vol(   0 ): 3.513E+14  Parms: UU      U1      
 Compute Stats, Diag. #    226  SItauy    vol(   0 ): 3.508E+14  Parms: VV      U1      
 cg2d: Sum(rhs),rhsMax =  -5.67764416790853E+01  3.00374974318684E-01
 Computing Diagnostic #     86  oceQnet      Counter:       4   Parms: SM      U1      
 Computing Diagnostic #     87  oceQsw       Counter:       4   Parms: SM      U1      
 Computing Diagnostic #     84  oceFWflx     Counter:       4   Parms: SM      U1      
 Computing Diagnostic #     85  oceSflux     Counter:       4   Parms: SM      U1      
 Computing Diagnostic #     80  oceTAUX      Counter:       4   Parms: UU      U1      
           Vector  Mate for  oceTAUX      Diagnostic #     81  oceTAUY  exists 
 Computing Diagnostic #     81  oceTAUY      Counter:       4   Parms: VV      U1      
           Vector  Mate for  oceTAUY      Diagnostic #     80  oceTAUX  exists 
 Computing Diagnostic #     26  THETA        Counter:       4   Parms: SMR     MR      
 Computing Diagnostic #     27  SALT         Counter:       4   Parms: SMR     MR      
 Computing Diagnostic #     30  UVEL         Counter:       4   Parms: UUR     MR      
           Vector  Mate for  UVEL         Diagnostic #     31  VVEL     exists 
 Computing Diagnostic #     31  VVEL         Counter:       4   Parms: VVR     MR      
           Vector  Mate for  VVEL         Diagnostic #     30  UVEL     exists 
 Computing Diagnostic #    214  SIarea       Counter:       4   Parms: SM      M1      
 Computing Diagnostic #    217  SIheff       Counter:       4   Parms: SM      M1      
 Computing Diagnostic #    219  SIhsnow      Counter:       4   Parms: SM      M1      
 Computing Diagnostic #     83  sIceLoad     Counter:       4   Parms: SM      U1      
 Computing Diagnostic #    223  SIuice       Counter:       4   Parms: UU      M1      
           Vector  Mate for  SIuice       Diagnostic #    224  SIvice   exists 
 Computing Diagnostic #    224  SIvice       Counter:       4   Parms: VV      M1      
           Vector  Mate for  SIvice       Diagnostic #    223  SIuice   exists 
 Computing Diagnostic #    225  SItaux       Counter:       4   Parms: UU      U1      
           Vector  Mate for  SItaux       Diagnostic #    226  SItauy   exists 
 Computing Diagnostic #    226  SItauy       Counter:       4   Parms: VV      U1      
           Vector  Mate for  SItauy       Diagnostic #    225  SItaux   exists 
 Computing Diagnostic #    285  SIareaN      Counter:       4   Parms: SM      MX      
 Computing Diagnostic #    284  SIheffN      Counter:       4   Parms: SM      MX      
 Computing Diagnostic #    286  SIhsnowN     Counter:       4   Parms: SM      MX      
 Compute Stats, Diag. #    214  SIarea    vol(   0 ): 3.580E+14  Parms: SM      M1      
 Compute Stats, Diag. #    217  SIheff    vol(   0 ): 3.580E+14  Parms: SM      M1      
 Compute Stats, Diag. #    219  SIhsnow   vol(   0 ): 3.580E+14  Parms: SM      M1      
 Compute Stats, Diag. #     83  sIceLoad  vol(   0 ): 3.580E+14  Parms: SM      U1      
 Compute Stats, Diag. #    223  SIuice    vol(   0 ): 3.513E+14  Parms: UU      M1      
 Compute Stats, Diag. #    224  SIvice    vol(   0 ): 3.508E+14  Parms: VV      M1      
 Compute Stats, Diag. #    225  SItaux    vol(   0 ): 3.513E+14  Parms: UU      U1      
 Compute Stats, Diag. #    226  SItauy    vol(   0 ): 3.508E+14  Parms: VV      U1      
 cg2d: Sum(rhs),rhsMax =  -5.69102191211741E+01  3.00395055696107E-01
 Compute Stats, Diag. #    214  SIarea    vol(   0 ): 3.580E+14  Parms: SM      M1      
 Compute Stats, Diag. #    217  SIheff    vol(   0 ): 3.580E+14  Parms: SM      M1      
 Compute Stats, Diag. #    219  SIhsnow   vol(   0 ): 3.580E+14  Parms: SM      M1      
 Compute Stats, Diag. #     83  sIceLoad  vol(   0 ): 3.580E+14  Parms: SM      U1      
 Compute Stats, Diag. #    223  SIuice    vol(   0 ): 3.513E+14  Parms: UU      M1      
 Compute Stats, Diag. #    224  SIvice    vol(   0 ): 3.508E+14  Parms: VV      M1      
 Compute Stats, Diag. #    225  SItaux    vol(   0 ): 3.513E+14  Parms: UU      U1      
 Compute Stats, Diag. #    226  SItauy    vol(   0 ): 3.508E+14  Parms: VV      U1      
 cg2d: Sum(rhs),rhsMax =  -5.70530668920509E+01  3.00414626577596E-01
 Compute Stats, Diag. #    214  SIarea    vol(   0 ): 3.580E+14  Parms: SM      M1      
 Compute Stats, Diag. #    217  SIheff    vol(   0 ): 3.580E+14  Parms: SM      M1      
 Compute Stats, Diag. #    219  SIhsnow   vol(   0 ): 3.580E+14  Parms: SM      M1      
 Compute Stats, Diag. #     83  sIceLoad  vol(   0 ): 3.580E+14  Parms: SM      U1      
 Compute Stats, Diag. #    223  SIuice    vol(   0 ): 3.513E+14  Parms: UU      M1      
 Compute Stats, Diag. #    224  SIvice    vol(   0 ): 3.508E+14  Parms: VV      M1      
 Compute Stats, Diag. #    225  SItaux    vol(   0 ): 3.513E+14  Parms: UU      U1      
 Compute Stats, Diag. #    226  SItauy    vol(   0 ): 3.508E+14  Parms: VV      U1      
 cg2d: Sum(rhs),rhsMax =  -5.71885085384853E+01  3.00433645470698E-01
 Compute Stats, Diag. #    214  SIarea    vol(   0 ): 3.580E+14  Parms: SM      M1      
 Compute Stats, Diag. #    217  SIheff    vol(   0 ): 3.580E+14  Parms: SM      M1      
 Compute Stats, Diag. #    219  SIhsnow   vol(   0 ): 3.580E+14  Parms: SM      M1      
 Compute Stats, Diag. #     83  sIceLoad  vol(   0 ): 3.580E+14  Parms: SM      U1      
 Compute Stats, Diag. #    223  SIuice    vol(   0 ): 3.513E+14  Parms: UU      M1      
 Compute Stats, Diag. #    224  SIvice    vol(   0 ): 3.508E+14  Parms: VV      M1      
 Compute Stats, Diag. #    225  SItaux    vol(   0 ): 3.513E+14  Parms: UU      U1      
 Compute Stats, Diag. #    226  SItauy    vol(   0 ): 3.508E+14  Parms: VV      U1      
 cg2d: Sum(rhs),rhsMax =  -5.73285807406946E+01  3.00451626451229E-01
(PID.TID 0000.0001)      cg2d_init_res =   4.13798882246826E-02
(PID.TID 0000.0001)      cg2d_iters(min,last) =      -1      25
(PID.TID 0000.0001)      cg2d_last_res =   2.16610747668128E-05
(PID.TID 0000.0001) // =======================================================
(PID.TID 0000.0001) // Begin MONITOR dynamic field statistics
(PID.TID 0000.0001) // =======================================================
(PID.TID 0000.0001) %MON time_tsnumber                =                  1240
(PID.TID 0000.0001) %MON time_secondsf                =   1.1160000000000E+06
(PID.TID 0000.0001) %MON dynstat_eta_max              =   1.0193668149912E+00
(PID.TID 0000.0001) %MON dynstat_eta_min              =  -1.8589675033576E+00
(PID.TID 0000.0001) %MON dynstat_eta_mean             =   1.8134861041664E-03
(PID.TID 0000.0001) %MON dynstat_eta_sd               =   6.2604207406219E-01
(PID.TID 0000.0001) %MON dynstat_eta_del2             =   5.1443162957717E-05
(PID.TID 0000.0001) %MON dynstat_uvel_max             =   6.5341558995904E-01
(PID.TID 0000.0001) %MON dynstat_uvel_min             =  -9.2414655720870E-01
(PID.TID 0000.0001) %MON dynstat_uvel_mean            =   1.3871797403758E-03
(PID.TID 0000.0001) %MON dynstat_uvel_sd              =   1.7998966609760E-02
(PID.TID 0000.0001) %MON dynstat_uvel_del2            =   7.1246502863965E-06
(PID.TID 0000.0001) %MON dynstat_vvel_max             =   6.6921729172645E-01
(PID.TID 0000.0001) %MON dynstat_vvel_min             =  -1.0744155439431E+00
(PID.TID 0000.0001) %MON dynstat_vvel_mean            =   1.0878700520625E-03
(PID.TID 0000.0001) %MON dynstat_vvel_sd              =   1.9594190609014E-02
(PID.TID 0000.0001) %MON dynstat_vvel_del2            =   7.4366052464491E-06
(PID.TID 0000.0001) %MON dynstat_wvel_max             =   3.0884624792720E-04
(PID.TID 0000.0001) %MON dynstat_wvel_min             =  -7.5952588594625E-04
(PID.TID 0000.0001) %MON dynstat_wvel_mean            =   4.5724331594094E-09
(PID.TID 0000.0001) %MON dynstat_wvel_sd              =   1.7059050655223E-05
(PID.TID 0000.0001) %MON dynstat_wvel_del2            =   1.4522361063162E-08
(PID.TID 0000.0001) %MON dynstat_theta_max            =   3.1402327141252E+01
(PID.TID 0000.0001) %MON dynstat_theta_min            =  -2.0394974657767E+00
(PID.TID 0000.0001) %MON dynstat_theta_mean           =   3.5900166307034E+00
(PID.TID 0000.0001) %MON dynstat_theta_sd             =   4.4367674907028E+00
(PID.TID 0000.0001) %MON dynstat_theta_del2           =   8.9217545632632E-05
(PID.TID 0000.0001) %MON dynstat_salt_max             =   4.0711553640068E+01
(PID.TID 0000.0001) %MON dynstat_salt_min             =   6.8164835662443E+00
(PID.TID 0000.0001) %MON dynstat_salt_mean            =   3.4725555423072E+01
(PID.TID 0000.0001) %MON dynstat_salt_sd              =   3.7715309862460E-01
(PID.TID 0000.0001) %MON dynstat_salt_del2            =   3.6395814217595E-05
(PID.TID 0000.0001) %MON dynstat_sst_max              =   3.1402307862611E+01
(PID.TID 0000.0001) %MON dynstat_sst_min              =  -1.8065905882258E+00
(PID.TID 0000.0001) %MON dynstat_sst_mean             =   1.8439597899485E+01
(PID.TID 0000.0001) %MON dynstat_sst_sd               =   1.0313565376757E+01
(PID.TID 0000.0001) %MON dynstat_sst_del2             =   7.8370770623075E-04
(PID.TID 0000.0001) %MON dynstat_sss_max              =   3.9098083944256E+01
(PID.TID 0000.0001) %MON dynstat_sss_min              =   6.8164835662443E+00
(PID.TID 0000.0001) %MON dynstat_sss_mean             =   3.4701960042806E+01
(PID.TID 0000.0001) %MON dynstat_sss_sd               =   1.1875430534855E+00
(PID.TID 0000.0001) %MON dynstat_sss_del2             =   1.0783325097062E-03
(PID.TID 0000.0001) %MON forcing_qnet_max             =   9.9271950250473E+02
(PID.TID 0000.0001) %MON forcing_qnet_min             =  -8.7244775451974E+02
(PID.TID 0000.0001) %MON forcing_qnet_mean            =  -3.9317071562020E+00
(PID.TID 0000.0001) %MON forcing_qnet_sd              =   2.0052242545395E+02
(PID.TID 0000.0001) %MON forcing_qnet_del2            =   3.1421566971839E-01
(PID.TID 0000.0001) %MON forcing_qsw_max              =   0.0000000000000E+00
(PID.TID 0000.0001) %MON forcing_qsw_min              =  -1.0845817533941E+02
(PID.TID 0000.0001) %MON forcing_qsw_mean             =  -1.9724557778612E+01
(PID.TID 0000.0001) %MON forcing_qsw_sd               =   2.8707130791529E+01
(PID.TID 0000.0001) %MON forcing_qsw_del2             =   2.0618810552384E-02
(PID.TID 0000.0001) %MON forcing_empmr_max            =   1.0995822958648E-03
(PID.TID 0000.0001) %MON forcing_empmr_min            =  -9.0732261538506E-02
(PID.TID 0000.0001) %MON forcing_empmr_mean           =  -5.0660312435131E-06
(PID.TID 0000.0001) %MON forcing_empmr_sd             =   3.9951951058900E-04
(PID.TID 0000.0001) %MON forcing_empmr_del2           =   4.2325571384335E-06
(PID.TID 0000.0001) %MON forcing_fu_max               =   9.1085031628609E-01
(PID.TID 0000.0001) %MON forcing_fu_min               =  -9.0306910872460E-01
(PID.TID 0000.0001) %MON forcing_fu_mean              =   5.0413655661320E-03
(PID.TID 0000.0001) %MON forcing_fu_sd                =   1.1799316257882E-01
(PID.TID 0000.0001) %MON forcing_fu_del2              =   1.5252382400699E-04
(PID.TID 0000.0001) %MON forcing_fv_max               =   1.3108196258545E+00
(PID.TID 0000.0001) %MON forcing_fv_min               =  -8.6810708045960E-01
(PID.TID 0000.0001) %MON forcing_fv_mean              =  -6.1579999616066E-03
(PID.TID 0000.0001) %MON forcing_fv_sd                =   1.2386336728682E-01
(PID.TID 0000.0001) %MON forcing_fv_del2              =   1.8564846028994E-04
(PID.TID 0000.0001) %MON trAdv_CFL_u_max              =   1.2349689943236E-02
(PID.TID 0000.0001) %MON trAdv_CFL_v_max              =   1.3484493172275E-02
(PID.TID 0000.0001) %MON trAdv_CFL_w_max              =   2.0818806189227E-02
(PID.TID 0000.0001) %MON advcfl_uvel_max              =   1.1089614512637E-02
(PID.TID 0000.0001) %MON advcfl_vvel_max              =   1.3116252207741E-02
(PID.TID 0000.0001) %MON advcfl_wvel_max              =   2.3013940729529E-02
(PID.TID 0000.0001) %MON advcfl_W_hf_max              =   2.4137642514634E-02
(PID.TID 0000.0001) %MON pe_b_mean                    =   5.1554758262664E-04
(PID.TID 0000.0001) %MON ke_max                       =   6.2705884358360E-01
(PID.TID 0000.0001) %MON ke_mean                      =   3.4284317554959E-04
(PID.TID 0000.0001) %MON ke_vol                       =   1.3349985246061E+18
(PID.TID 0000.0001) %MON vort_r_min                   =  -1.4134766019212E-05
(PID.TID 0000.0001) %MON vort_r_max                   =   1.6185781909838E-05
(PID.TID 0000.0001) %MON vort_a_mean                  =  -1.9727864647440E-05
(PID.TID 0000.0001) %MON vort_a_sd                    =   7.4542993277224E-05
(PID.TID 0000.0001) %MON vort_p_mean                  =  -2.1760523561335E-05
(PID.TID 0000.0001) %MON vort_p_sd                    =   9.7247064900661E-05
(PID.TID 0000.0001) %MON surfExpan_theta_mean         =   1.2326319634637E-07
(PID.TID 0000.0001) %MON surfExpan_salt_mean          =   5.4521259823158E-08
(PID.TID 0000.0001) // =======================================================
(PID.TID 0000.0001) // End MONITOR dynamic field statistics
(PID.TID 0000.0001) // =======================================================
(PID.TID 0000.0001) // =======================================================
(PID.TID 0000.0001) // Begin MONITOR SEAICE statistics
(PID.TID 0000.0001) // =======================================================
(PID.TID 0000.0001) %MON seaice_tsnumber              =                  1240
(PID.TID 0000.0001) %MON seaice_time_sec              =   1.1160000000000E+06
(PID.TID 0000.0001) %MON seaice_uice_max              =   4.0000000000000E-01
(PID.TID 0000.0001) %MON seaice_uice_min              =  -4.0000000000000E-01
(PID.TID 0000.0001) %MON seaice_uice_mean             =  -8.3054598624025E-03
(PID.TID 0000.0001) %MON seaice_uice_sd               =   1.9802383574176E-01
(PID.TID 0000.0001) %MON seaice_uice_del2             =   2.2931571122150E-04
(PID.TID 0000.0001) %MON seaice_vice_max              =   4.0000000000000E-01
(PID.TID 0000.0001) %MON seaice_vice_min              =  -4.0000000000000E-01
(PID.TID 0000.0001) %MON seaice_vice_mean             =  -2.1960776359499E-02
(PID.TID 0000.0001) %MON seaice_vice_sd               =   2.1302038025672E-01
(PID.TID 0000.0001) %MON seaice_vice_del2             =   2.3932563818061E-04
(PID.TID 0000.0001) %MON seaice_area_max              =   9.9999999813735E-01
(PID.TID 0000.0001) %MON seaice_area_min              =   0.0000000000000E+00
(PID.TID 0000.0001) %MON seaice_area_mean             =   6.4235783619956E-02
(PID.TID 0000.0001) %MON seaice_area_sd               =   2.2696573871263E-01
(PID.TID 0000.0001) %MON seaice_area_del2             =   3.6814050494170E-04
(PID.TID 0000.0001) %MON seaice_heff_max              =   2.4874800052377E+01
(PID.TID 0000.0001) %MON seaice_heff_min              =   0.0000000000000E+00
(PID.TID 0000.0001) %MON seaice_heff_mean             =   2.1112875524319E-01
(PID.TID 0000.0001) %MON seaice_heff_sd               =   1.0652868681636E+00
(PID.TID 0000.0001) %MON seaice_heff_del2             =   3.8047266124311E-03
(PID.TID 0000.0001) %MON seaice_hsnow_max             =   8.2161130273016E+00
(PID.TID 0000.0001) %MON seaice_hsnow_min             =   0.0000000000000E+00
(PID.TID 0000.0001) %MON seaice_hsnow_mean            =   2.3850577154695E-02
(PID.TID 0000.0001) %MON seaice_hsnow_sd              =   1.5565348563459E-01
(PID.TID 0000.0001) %MON seaice_hsnow_del2            =   1.2322674157612E-03
(PID.TID 0000.0001) // =======================================================
(PID.TID 0000.0001) // End MONITOR SEAICE statistics
(PID.TID 0000.0001) // =======================================================
 Computing Diagnostic #     86  oceQnet      Counter:       4   Parms: SM      U1      
 Computing Diagnostic #     87  oceQsw       Counter:       4   Parms: SM      U1      
 Computing Diagnostic #     84  oceFWflx     Counter:       4   Parms: SM      U1      
 Computing Diagnostic #     85  oceSflux     Counter:       4   Parms: SM      U1      
 Computing Diagnostic #     80  oceTAUX      Counter:       4   Parms: UU      U1      
           Vector  Mate for  oceTAUX      Diagnostic #     81  oceTAUY  exists 
 Computing Diagnostic #     81  oceTAUY      Counter:       4   Parms: VV      U1      
           Vector  Mate for  oceTAUY      Diagnostic #     80  oceTAUX  exists 
 Computing Diagnostic #     26  THETA        Counter:       4   Parms: SMR     MR      
 Computing Diagnostic #     27  SALT         Counter:       4   Parms: SMR     MR      
 Computing Diagnostic #     30  UVEL         Counter:       4   Parms: UUR     MR      
           Vector  Mate for  UVEL         Diagnostic #     31  VVEL     exists 
 Computing Diagnostic #     31  VVEL         Counter:       4   Parms: VVR     MR      
           Vector  Mate for  VVEL         Diagnostic #     30  UVEL     exists 
 Computing Diagnostic #    214  SIarea       Counter:       4   Parms: SM      M1      
 Computing Diagnostic #    217  SIheff       Counter:       4   Parms: SM      M1      
 Computing Diagnostic #    219  SIhsnow      Counter:       4   Parms: SM      M1      
 Computing Diagnostic #     83  sIceLoad     Counter:       4   Parms: SM      U1      
 Computing Diagnostic #    223  SIuice       Counter:       4   Parms: UU      M1      
           Vector  Mate for  SIuice       Diagnostic #    224  SIvice   exists 
 Computing Diagnostic #    224  SIvice       Counter:       4   Parms: VV      M1      
           Vector  Mate for  SIvice       Diagnostic #    223  SIuice   exists 
 Computing Diagnostic #    225  SItaux       Counter:       4   Parms: UU      U1      
           Vector  Mate for  SItaux       Diagnostic #    226  SItauy   exists 
 Computing Diagnostic #    226  SItauy       Counter:       4   Parms: VV      U1      
           Vector  Mate for  SItauy       Diagnostic #    225  SItaux   exists 
 Computing Diagnostic #    285  SIareaN      Counter:       4   Parms: SM      MX      
 Computing Diagnostic #    284  SIheffN      Counter:       4   Parms: SM      MX      
 Computing Diagnostic #    286  SIhsnowN     Counter:       4   Parms: SM      MX      
 Compute Stats, Diag. #    214  SIarea    vol(   0 ): 3.580E+14  Parms: SM      M1      
 Compute Stats, Diag. #    217  SIheff    vol(   0 ): 3.580E+14  Parms: SM      M1      
 Compute Stats, Diag. #    219  SIhsnow   vol(   0 ): 3.580E+14  Parms: SM      M1      
 Compute Stats, Diag. #     83  sIceLoad  vol(   0 ): 3.580E+14  Parms: SM      U1      
 Compute Stats, Diag. #    223  SIuice    vol(   0 ): 3.513E+14  Parms: UU      M1      
 Compute Stats, Diag. #    224  SIvice    vol(   0 ): 3.508E+14  Parms: VV      M1      
 Compute Stats, Diag. #    225  SItaux    vol(   0 ): 3.513E+14  Parms: UU      U1      
 Compute Stats, Diag. #    226  SItauy    vol(   0 ): 3.508E+14  Parms: VV      U1      
 cg2d: Sum(rhs),rhsMax =  -5.74529453410750E+01  3.00468225839719E-01
 Compute Stats, Diag. #    214  SIarea    vol(   0 ): 3.580E+14  Parms: SM      M1      
 Compute Stats, Diag. #    217  SIheff    vol(   0 ): 3.580E+14  Parms: SM      M1      
 Compute Stats, Diag. #    219  SIhsnow   vol(   0 ): 3.580E+14  Parms: SM      M1      
 Compute Stats, Diag. #     83  sIceLoad  vol(   0 ): 3.580E+14  Parms: SM      U1      
 Compute Stats, Diag. #    223  SIuice    vol(   0 ): 3.513E+14  Parms: UU      M1      
 Compute Stats, Diag. #    224  SIvice    vol(   0 ): 3.508E+14  Parms: VV      M1      
 Compute Stats, Diag. #    225  SItaux    vol(   0 ): 3.513E+14  Parms: UU      U1      
 Compute Stats, Diag. #    226  SItauy    vol(   0 ): 3.508E+14  Parms: VV      U1      
 cg2d: Sum(rhs),rhsMax =  -5.75695607343060E+01  3.00483382903455E-01
 Compute Stats, Diag. #    214  SIarea    vol(   0 ): 3.580E+14  Parms: SM      M1      
 Compute Stats, Diag. #    217  SIheff    vol(   0 ): 3.580E+14  Parms: SM      M1      
 Compute Stats, Diag. #    219  SIhsnow   vol(   0 ): 3.580E+14  Parms: SM      M1      
 Compute Stats, Diag. #     83  sIceLoad  vol(   0 ): 3.580E+14  Parms: SM      U1      
 Compute Stats, Diag. #    223  SIuice    vol(   0 ): 3.513E+14  Parms: UU      M1      
 Compute Stats, Diag. #    224  SIvice    vol(   0 ): 3.508E+14  Parms: VV      M1      
 Compute Stats, Diag. #    225  SItaux    vol(   0 ): 3.513E+14  Parms: UU      U1      
 Compute Stats, Diag. #    226  SItauy    vol(   0 ): 3.508E+14  Parms: VV      U1      
 cg2d: Sum(rhs),rhsMax =  -5.76827592480359E+01  3.00494811558045E-01
 Compute Stats, Diag. #    214  SIarea    vol(   0 ): 3.580E+14  Parms: SM      M1      
 Compute Stats, Diag. #    217  SIheff    vol(   0 ): 3.580E+14  Parms: SM      M1      
 Compute Stats, Diag. #    219  SIhsnow   vol(   0 ): 3.580E+14  Parms: SM      M1      
 Compute Stats, Diag. #     83  sIceLoad  vol(   0 ): 3.580E+14  Parms: SM      U1      
 Compute Stats, Diag. #    223  SIuice    vol(   0 ): 3.513E+14  Parms: UU      M1      
 Compute Stats, Diag. #    224  SIvice    vol(   0 ): 3.508E+14  Parms: VV      M1      
 Compute Stats, Diag. #    225  SItaux    vol(   0 ): 3.513E+14  Parms: UU      U1      
 Compute Stats, Diag. #    226  SItauy    vol(   0 ): 3.508E+14  Parms: VV      U1      
 cg2d: Sum(rhs),rhsMax =  -5.77915461253096E+01  3.00503081878144E-01
 Computing Diagnostic #     86  oceQnet      Counter:       4   Parms: SM      U1      
 Computing Diagnostic #     87  oceQsw       Counter:       4   Parms: SM      U1      
 Computing Diagnostic #     84  oceFWflx     Counter:       4   Parms: SM      U1      
 Computing Diagnostic #     85  oceSflux     Counter:       4   Parms: SM      U1      
 Computing Diagnostic #     80  oceTAUX      Counter:       4   Parms: UU      U1      
           Vector  Mate for  oceTAUX      Diagnostic #     81  oceTAUY  exists 
 Computing Diagnostic #     81  oceTAUY      Counter:       4   Parms: VV      U1      
           Vector  Mate for  oceTAUY      Diagnostic #     80  oceTAUX  exists 
 Computing Diagnostic #     26  THETA        Counter:       4   Parms: SMR     MR      
 Computing Diagnostic #     27  SALT         Counter:       4   Parms: SMR     MR      
 Computing Diagnostic #     30  UVEL         Counter:       4   Parms: UUR     MR      
           Vector  Mate for  UVEL         Diagnostic #     31  VVEL     exists 
 Computing Diagnostic #     31  VVEL         Counter:       4   Parms: VVR     MR      
           Vector  Mate for  VVEL         Diagnostic #     30  UVEL     exists 
 Computing Diagnostic #    214  SIarea       Counter:       4   Parms: SM      M1      
 Computing Diagnostic #    217  SIheff       Counter:       4   Parms: SM      M1      
 Computing Diagnostic #    219  SIhsnow      Counter:       4   Parms: SM      M1      
 Computing Diagnostic #     83  sIceLoad     Counter:       4   Parms: SM      U1      
 Computing Diagnostic #    223  SIuice       Counter:       4   Parms: UU      M1      
           Vector  Mate for  SIuice       Diagnostic #    224  SIvice   exists 
 Computing Diagnostic #    224  SIvice       Counter:       4   Parms: VV      M1      
           Vector  Mate for  SIvice       Diagnostic #    223  SIuice   exists 
 Computing Diagnostic #    225  SItaux       Counter:       4   Parms: UU      U1      
           Vector  Mate for  SItaux       Diagnostic #    226  SItauy   exists 
 Computing Diagnostic #    226  SItauy       Counter:       4   Parms: VV      U1      
           Vector  Mate for  SItauy       Diagnostic #    225  SItaux   exists 
 Computing Diagnostic #    285  SIareaN      Counter:       4   Parms: SM      MX      
 Computing Diagnostic #    284  SIheffN      Counter:       4   Parms: SM      MX      
 Computing Diagnostic #    286  SIhsnowN     Counter:       4   Parms: SM      MX      
 Compute Stats, Diag. #    214  SIarea    vol(   0 ): 3.580E+14  Parms: SM      M1      
 Compute Stats, Diag. #    217  SIheff    vol(   0 ): 3.580E+14  Parms: SM      M1      
 Compute Stats, Diag. #    219  SIhsnow   vol(   0 ): 3.580E+14  Parms: SM      M1      
 Compute Stats, Diag. #     83  sIceLoad  vol(   0 ): 3.580E+14  Parms: SM      U1      
 Compute Stats, Diag. #    223  SIuice    vol(   0 ): 3.513E+14  Parms: UU      M1      
 Compute Stats, Diag. #    224  SIvice    vol(   0 ): 3.508E+14  Parms: VV      M1      
 Compute Stats, Diag. #    225  SItaux    vol(   0 ): 3.513E+14  Parms: UU      U1      
 Compute Stats, Diag. #    226  SItauy    vol(   0 ): 3.508E+14  Parms: VV      U1      
 cg2d: Sum(rhs),rhsMax =  -5.78867507726826E+01  3.00508362520041E-01
 Compute Stats, Diag. #    214  SIarea    vol(   0 ): 3.580E+14  Parms: SM      M1      
 Compute Stats, Diag. #    217  SIheff    vol(   0 ): 3.580E+14  Parms: SM      M1      
 Compute Stats, Diag. #    219  SIhsnow   vol(   0 ): 3.580E+14  Parms: SM      M1      
 Compute Stats, Diag. #     83  sIceLoad  vol(   0 ): 3.580E+14  Parms: SM      U1      
 Compute Stats, Diag. #    223  SIuice    vol(   0 ): 3.513E+14  Parms: UU      M1      
 Compute Stats, Diag. #    224  SIvice    vol(   0 ): 3.508E+14  Parms: VV      M1      
 Compute Stats, Diag. #    225  SItaux    vol(   0 ): 3.513E+14  Parms: UU      U1      
 Compute Stats, Diag. #    226  SItauy    vol(   0 ): 3.508E+14  Parms: VV      U1      
 cg2d: Sum(rhs),rhsMax =  -5.79805319360297E+01  3.00508684287284E-01
 Compute Stats, Diag. #    214  SIarea    vol(   0 ): 3.580E+14  Parms: SM      M1      
 Compute Stats, Diag. #    217  SIheff    vol(   0 ): 3.580E+14  Parms: SM      M1      
 Compute Stats, Diag. #    219  SIhsnow   vol(   0 ): 3.580E+14  Parms: SM      M1      
 Compute Stats, Diag. #     83  sIceLoad  vol(   0 ): 3.580E+14  Parms: SM      U1      
 Compute Stats, Diag. #    223  SIuice    vol(   0 ): 3.513E+14  Parms: UU      M1      
 Compute Stats, Diag. #    224  SIvice    vol(   0 ): 3.508E+14  Parms: VV      M1      
 Compute Stats, Diag. #    225  SItaux    vol(   0 ): 3.513E+14  Parms: UU      U1      
 Compute Stats, Diag. #    226  SItauy    vol(   0 ): 3.508E+14  Parms: VV      U1      
 cg2d: Sum(rhs),rhsMax =  -5.80677429057510E+01  3.00505487439442E-01
 Compute Stats, Diag. #    214  SIarea    vol(   0 ): 3.580E+14  Parms: SM      M1      
 Compute Stats, Diag. #    217  SIheff    vol(   0 ): 3.580E+14  Parms: SM      M1      
 Compute Stats, Diag. #    219  SIhsnow   vol(   0 ): 3.580E+14  Parms: SM      M1      
 Compute Stats, Diag. #     83  sIceLoad  vol(   0 ): 3.580E+14  Parms: SM      U1      
 Compute Stats, Diag. #    223  SIuice    vol(   0 ): 3.513E+14  Parms: UU      M1      
 Compute Stats, Diag. #    224  SIvice    vol(   0 ): 3.508E+14  Parms: VV      M1      
 Compute Stats, Diag. #    225  SItaux    vol(   0 ): 3.513E+14  Parms: UU      U1      
 Compute Stats, Diag. #    226  SItauy    vol(   0 ): 3.508E+14  Parms: VV      U1      
 cg2d: Sum(rhs),rhsMax =  -5.81593399334772E+01  3.00498521370813E-01
(PID.TID 0000.0001)      cg2d_init_res =   4.32674679471744E-02
(PID.TID 0000.0001)      cg2d_iters(min,last) =      -1      25
(PID.TID 0000.0001)      cg2d_last_res =   2.16914428921526E-05
(PID.TID 0000.0001) // =======================================================
(PID.TID 0000.0001) // Begin MONITOR dynamic field statistics
(PID.TID 0000.0001) // =======================================================
(PID.TID 0000.0001) %MON time_tsnumber                =                  1248
(PID.TID 0000.0001) %MON time_secondsf                =   1.1232000000000E+06
(PID.TID 0000.0001) %MON dynstat_eta_max              =   1.0192369623476E+00
(PID.TID 0000.0001) %MON dynstat_eta_min              =  -1.8607896072138E+00
(PID.TID 0000.0001) %MON dynstat_eta_mean             =   1.8397656707030E-03
(PID.TID 0000.0001) %MON dynstat_eta_sd               =   6.2616468064296E-01
(PID.TID 0000.0001) %MON dynstat_eta_del2             =   5.1308661574473E-05
(PID.TID 0000.0001) %MON dynstat_uvel_max             =   6.5693124213437E-01
(PID.TID 0000.0001) %MON dynstat_uvel_min             =  -9.3060097421265E-01
(PID.TID 0000.0001) %MON dynstat_uvel_mean            =   1.3868402681130E-03
(PID.TID 0000.0001) %MON dynstat_uvel_sd              =   1.8010737142723E-02
(PID.TID 0000.0001) %MON dynstat_uvel_del2            =   7.1552917447823E-06
(PID.TID 0000.0001) %MON dynstat_vvel_max             =   6.6868106333455E-01
(PID.TID 0000.0001) %MON dynstat_vvel_min             =  -1.0799563193725E+00
(PID.TID 0000.0001) %MON dynstat_vvel_mean            =   1.0897633494373E-03
(PID.TID 0000.0001) %MON dynstat_vvel_sd              =   1.9619863810002E-02
(PID.TID 0000.0001) %MON dynstat_vvel_del2            =   7.4724760306087E-06
(PID.TID 0000.0001) %MON dynstat_wvel_max             =   2.9949286592085E-04
(PID.TID 0000.0001) %MON dynstat_wvel_min             =  -7.6015843180294E-04
(PID.TID 0000.0001) %MON dynstat_wvel_mean            =   4.1715115841561E-09
(PID.TID 0000.0001) %MON dynstat_wvel_sd              =   1.7016221953840E-05
(PID.TID 0000.0001) %MON dynstat_wvel_del2            =   1.4605807972347E-08
(PID.TID 0000.0001) %MON dynstat_theta_max            =   3.1378449399244E+01
(PID.TID 0000.0001) %MON dynstat_theta_min            =  -2.0394880957484E+00
(PID.TID 0000.0001) %MON dynstat_theta_mean           =   3.5900214556594E+00
(PID.TID 0000.0001) %MON dynstat_theta_sd             =   4.4368076379058E+00
(PID.TID 0000.0001) %MON dynstat_theta_del2           =   8.9182028723867E-05
(PID.TID 0000.0001) %MON dynstat_salt_max             =   4.0711553864335E+01
(PID.TID 0000.0001) %MON dynstat_salt_min             =   6.5803311437570E+00
(PID.TID 0000.0001) %MON dynstat_salt_mean            =   3.4725555157974E+01
(PID.TID 0000.0001) %MON dynstat_salt_sd              =   3.7715725802729E-01
(PID.TID 0000.0001) %MON dynstat_salt_del2            =   3.6493595353721E-05
(PID.TID 0000.0001) %MON dynstat_sst_max              =   3.1378427493387E+01
(PID.TID 0000.0001) %MON dynstat_sst_min              =  -1.8065374707193E+00
(PID.TID 0000.0001) %MON dynstat_sst_mean             =   1.8441888844367E+01
(PID.TID 0000.0001) %MON dynstat_sst_sd               =   1.0315182440164E+01
(PID.TID 0000.0001) %MON dynstat_sst_del2             =   7.8271624745499E-04
(PID.TID 0000.0001) %MON dynstat_sss_max              =   3.9098132984740E+01
(PID.TID 0000.0001) %MON dynstat_sss_min              =   6.5803311437570E+00
(PID.TID 0000.0001) %MON dynstat_sss_mean             =   3.4702029727858E+01
(PID.TID 0000.0001) %MON dynstat_sss_sd               =   1.1880370274526E+00
(PID.TID 0000.0001) %MON dynstat_sss_del2             =   1.0829069608445E-03
(PID.TID 0000.0001) %MON forcing_qnet_max             =   3.5931911621094E+03
(PID.TID 0000.0001) %MON forcing_qnet_min             =  -8.4616835494361E+02
(PID.TID 0000.0001) %MON forcing_qnet_mean            =  -1.6187511768706E+01
(PID.TID 0000.0001) %MON forcing_qnet_sd              =   2.0998691056109E+02
(PID.TID 0000.0001) %MON forcing_qnet_del2            =   3.6016571536260E-01
(PID.TID 0000.0001) %MON forcing_qsw_max              =   0.0000000000000E+00
(PID.TID 0000.0001) %MON forcing_qsw_min              =  -1.1056314222605E+02
(PID.TID 0000.0001) %MON forcing_qsw_mean             =  -2.1592538504406E+01
(PID.TID 0000.0001) %MON forcing_qsw_sd               =   3.0556837063323E+01
(PID.TID 0000.0001) %MON forcing_qsw_del2             =   1.9377606792160E-02
(PID.TID 0000.0001) %MON forcing_empmr_max            =   1.6444227658212E-03
(PID.TID 0000.0001) %MON forcing_empmr_min            =  -9.8020911216736E-02
(PID.TID 0000.0001) %MON forcing_empmr_mean           =  -3.3128157975082E-06
(PID.TID 0000.0001) %MON forcing_empmr_sd             =   3.8478122564590E-04
(PID.TID 0000.0001) %MON forcing_empmr_del2           =   4.0138723690354E-06
(PID.TID 0000.0001) %MON forcing_fu_max               =   9.7704628109931E-01
(PID.TID 0000.0001) %MON forcing_fu_min               =  -9.3819868564606E-01
(PID.TID 0000.0001) %MON forcing_fu_mean              =   5.2149211770091E-03
(PID.TID 0000.0001) %MON forcing_fu_sd                =   1.1976442230805E-01
(PID.TID 0000.0001) %MON forcing_fu_del2              =   1.5635738608389E-04
(PID.TID 0000.0001) %MON forcing_fv_max               =   1.4681520462036E+00
(PID.TID 0000.0001) %MON forcing_fv_min               =  -8.9092567563057E-01
(PID.TID 0000.0001) %MON forcing_fv_mean              =  -5.7058550004624E-03
(PID.TID 0000.0001) %MON forcing_fv_sd                =   1.2620478940074E-01
(PID.TID 0000.0001) %MON forcing_fv_del2              =   1.9102237322021E-04
(PID.TID 0000.0001) %MON trAdv_CFL_u_max              =   1.2610436129997E-02
(PID.TID 0000.0001) %MON trAdv_CFL_v_max              =   1.3748781911019E-02
(PID.TID 0000.0001) %MON trAdv_CFL_w_max              =   2.0705445026085E-02
(PID.TID 0000.0001) %MON advcfl_uvel_max              =   1.1233877027950E-02
(PID.TID 0000.0001) %MON advcfl_vvel_max              =   1.3160754887317E-02
(PID.TID 0000.0001) %MON advcfl_wvel_max              =   2.2905761462327E-02
(PID.TID 0000.0001) %MON advcfl_W_hf_max              =   2.4024297408207E-02
(PID.TID 0000.0001) %MON pe_b_mean                    =   5.1574965694144E-04
(PID.TID 0000.0001) %MON ke_max                       =   6.3567521379419E-01
(PID.TID 0000.0001) %MON ke_mean                      =   3.4353455928587E-04
(PID.TID 0000.0001) %MON ke_vol                       =   1.3349985345636E+18
(PID.TID 0000.0001) %MON vort_r_min                   =  -1.3152897922726E-05
(PID.TID 0000.0001) %MON vort_r_max                   =   1.5225586571644E-05
(PID.TID 0000.0001) %MON vort_a_mean                  =  -1.9727864647440E-05
(PID.TID 0000.0001) %MON vort_a_sd                    =   7.4542994592030E-05
(PID.TID 0000.0001) %MON vort_p_mean                  =  -2.1760523477609E-05
(PID.TID 0000.0001) %MON vort_p_sd                    =   9.7246994873259E-05
(PID.TID 0000.0001) %MON surfExpan_theta_mean         =   1.3554411509155E-07
(PID.TID 0000.0001) %MON surfExpan_salt_mean          =   5.4188419697865E-08
(PID.TID 0000.0001) // =======================================================
(PID.TID 0000.0001) // End MONITOR dynamic field statistics
(PID.TID 0000.0001) // =======================================================
(PID.TID 0000.0001) // =======================================================
(PID.TID 0000.0001) // Begin MONITOR SEAICE statistics
(PID.TID 0000.0001) // =======================================================
(PID.TID 0000.0001) %MON seaice_tsnumber              =                  1248
(PID.TID 0000.0001) %MON seaice_time_sec              =   1.1232000000000E+06
(PID.TID 0000.0001) %MON seaice_uice_max              =   4.0000000000000E-01
(PID.TID 0000.0001) %MON seaice_uice_min              =  -4.0000000000000E-01
(PID.TID 0000.0001) %MON seaice_uice_mean             =  -8.3054598624025E-03
(PID.TID 0000.0001) %MON seaice_uice_sd               =   1.9802383574176E-01
(PID.TID 0000.0001) %MON seaice_uice_del2             =   2.2931571122150E-04
(PID.TID 0000.0001) %MON seaice_vice_max              =   4.0000000000000E-01
(PID.TID 0000.0001) %MON seaice_vice_min              =  -4.0000000000000E-01
(PID.TID 0000.0001) %MON seaice_vice_mean             =  -2.1960776359499E-02
(PID.TID 0000.0001) %MON seaice_vice_sd               =   2.1302038025672E-01
(PID.TID 0000.0001) %MON seaice_vice_del2             =   2.3932563818061E-04
(PID.TID 0000.0001) %MON seaice_area_max              =   9.9999999813735E-01
(PID.TID 0000.0001) %MON seaice_area_min              =   0.0000000000000E+00
(PID.TID 0000.0001) %MON seaice_area_mean             =   6.4215434567497E-02
(PID.TID 0000.0001) %MON seaice_area_sd               =   2.2692816058885E-01
(PID.TID 0000.0001) %MON seaice_area_del2             =   3.6781116078723E-04
(PID.TID 0000.0001) %MON seaice_heff_max              =   2.4873571046162E+01
(PID.TID 0000.0001) %MON seaice_heff_min              =   0.0000000000000E+00
(PID.TID 0000.0001) %MON seaice_heff_mean             =   2.1110966635414E-01
(PID.TID 0000.0001) %MON seaice_heff_sd               =   1.0652739408658E+00
(PID.TID 0000.0001) %MON seaice_heff_del2             =   3.8041698521460E-03
(PID.TID 0000.0001) %MON seaice_hsnow_max             =   8.2157086549560E+00
(PID.TID 0000.0001) %MON seaice_hsnow_min             =   0.0000000000000E+00
(PID.TID 0000.0001) %MON seaice_hsnow_mean            =   2.3849286163474E-02
(PID.TID 0000.0001) %MON seaice_hsnow_sd              =   1.5564917689719E-01
(PID.TID 0000.0001) %MON seaice_hsnow_del2            =   1.2321936573618E-03
(PID.TID 0000.0001) // =======================================================
(PID.TID 0000.0001) // End MONITOR SEAICE statistics
(PID.TID 0000.0001) // =======================================================
 Computing Diagnostic #     86  oceQnet      Counter:       4   Parms: SM      U1      
 Computing Diagnostic #     87  oceQsw       Counter:       4   Parms: SM      U1      
 Computing Diagnostic #     84  oceFWflx     Counter:       4   Parms: SM      U1      
 Computing Diagnostic #     85  oceSflux     Counter:       4   Parms: SM      U1      
 Computing Diagnostic #     80  oceTAUX      Counter:       4   Parms: UU      U1      
           Vector  Mate for  oceTAUX      Diagnostic #     81  oceTAUY  exists 
 Computing Diagnostic #     81  oceTAUY      Counter:       4   Parms: VV      U1      
           Vector  Mate for  oceTAUY      Diagnostic #     80  oceTAUX  exists 
 Computing Diagnostic #     26  THETA        Counter:       4   Parms: SMR     MR      
 Computing Diagnostic #     27  SALT         Counter:       4   Parms: SMR     MR      
 Computing Diagnostic #     30  UVEL         Counter:       4   Parms: UUR     MR      
           Vector  Mate for  UVEL         Diagnostic #     31  VVEL     exists 
 Computing Diagnostic #     31  VVEL         Counter:       4   Parms: VVR     MR      
           Vector  Mate for  VVEL         Diagnostic #     30  UVEL     exists 
 Computing Diagnostic #    214  SIarea       Counter:       4   Parms: SM      M1      
 Computing Diagnostic #    217  SIheff       Counter:       4   Parms: SM      M1      
 Computing Diagnostic #    219  SIhsnow      Counter:       4   Parms: SM      M1      
 Computing Diagnostic #     83  sIceLoad     Counter:       4   Parms: SM      U1      
 Computing Diagnostic #    223  SIuice       Counter:       4   Parms: UU      M1      
           Vector  Mate for  SIuice       Diagnostic #    224  SIvice   exists 
 Computing Diagnostic #    224  SIvice       Counter:       4   Parms: VV      M1      
           Vector  Mate for  SIvice       Diagnostic #    223  SIuice   exists 
 Computing Diagnostic #    225  SItaux       Counter:       4   Parms: UU      U1      
           Vector  Mate for  SItaux       Diagnostic #    226  SItauy   exists 
 Computing Diagnostic #    226  SItauy       Counter:       4   Parms: VV      U1      
           Vector  Mate for  SItauy       Diagnostic #    225  SItaux   exists 
 Computing Diagnostic #    285  SIareaN      Counter:       4   Parms: SM      MX      
 Computing Diagnostic #    284  SIheffN      Counter:       4   Parms: SM      MX      
 Computing Diagnostic #    286  SIhsnowN     Counter:       4   Parms: SM      MX      
 Compute Stats, Diag. #    214  SIarea    vol(   0 ): 3.580E+14  Parms: SM      M1      
 Compute Stats, Diag. #    217  SIheff    vol(   0 ): 3.580E+14  Parms: SM      M1      
 Compute Stats, Diag. #    219  SIhsnow   vol(   0 ): 3.580E+14  Parms: SM      M1      
 Compute Stats, Diag. #     83  sIceLoad  vol(   0 ): 3.580E+14  Parms: SM      U1      
 Compute Stats, Diag. #    223  SIuice    vol(   0 ): 3.513E+14  Parms: UU      M1      
 Compute Stats, Diag. #    224  SIvice    vol(   0 ): 3.508E+14  Parms: VV      M1      
 Compute Stats, Diag. #    225  SItaux    vol(   0 ): 3.513E+14  Parms: UU      U1      
 Compute Stats, Diag. #    226  SItauy    vol(   0 ): 3.508E+14  Parms: VV      U1      
 cg2d: Sum(rhs),rhsMax =  -5.82305403206556E+01  3.00486567804236E-01
 Compute Stats, Diag. #    214  SIarea    vol(   0 ): 3.580E+14  Parms: SM      M1      
 Compute Stats, Diag. #    217  SIheff    vol(   0 ): 3.580E+14  Parms: SM      M1      
 Compute Stats, Diag. #    219  SIhsnow   vol(   0 ): 3.580E+14  Parms: SM      M1      
 Compute Stats, Diag. #     83  sIceLoad  vol(   0 ): 3.580E+14  Parms: SM      U1      
 Compute Stats, Diag. #    223  SIuice    vol(   0 ): 3.513E+14  Parms: UU      M1      
 Compute Stats, Diag. #    224  SIvice    vol(   0 ): 3.508E+14  Parms: VV      M1      
 Compute Stats, Diag. #    225  SItaux    vol(   0 ): 3.513E+14  Parms: UU      U1      
 Compute Stats, Diag. #    226  SItauy    vol(   0 ): 3.508E+14  Parms: VV      U1      
 cg2d: Sum(rhs),rhsMax =  -5.82861675440909E+01  3.00470011170242E-01
 Compute Stats, Diag. #    214  SIarea    vol(   0 ): 3.580E+14  Parms: SM      M1      
 Compute Stats, Diag. #    217  SIheff    vol(   0 ): 3.580E+14  Parms: SM      M1      
 Compute Stats, Diag. #    219  SIhsnow   vol(   0 ): 3.580E+14  Parms: SM      M1      
 Compute Stats, Diag. #     83  sIceLoad  vol(   0 ): 3.580E+14  Parms: SM      U1      
 Compute Stats, Diag. #    223  SIuice    vol(   0 ): 3.513E+14  Parms: UU      M1      
 Compute Stats, Diag. #    224  SIvice    vol(   0 ): 3.508E+14  Parms: VV      M1      
 Compute Stats, Diag. #    225  SItaux    vol(   0 ): 3.513E+14  Parms: UU      U1      
 Compute Stats, Diag. #    226  SItauy    vol(   0 ): 3.508E+14  Parms: VV      U1      
 cg2d: Sum(rhs),rhsMax =  -5.83439384853398E+01  3.00449390819277E-01
 Compute Stats, Diag. #    214  SIarea    vol(   0 ): 3.580E+14  Parms: SM      M1      
 Compute Stats, Diag. #    217  SIheff    vol(   0 ): 3.580E+14  Parms: SM      M1      
 Compute Stats, Diag. #    219  SIhsnow   vol(   0 ): 3.580E+14  Parms: SM      M1      
 Compute Stats, Diag. #     83  sIceLoad  vol(   0 ): 3.580E+14  Parms: SM      U1      
 Compute Stats, Diag. #    223  SIuice    vol(   0 ): 3.513E+14  Parms: UU      M1      
 Compute Stats, Diag. #    224  SIvice    vol(   0 ): 3.508E+14  Parms: VV      M1      
 Compute Stats, Diag. #    225  SItaux    vol(   0 ): 3.513E+14  Parms: UU      U1      
 Compute Stats, Diag. #    226  SItauy    vol(   0 ): 3.508E+14  Parms: VV      U1      
 cg2d: Sum(rhs),rhsMax =  -5.84006102963127E+01  3.00425273982798E-01
 Computing Diagnostic #     86  oceQnet      Counter:       4   Parms: SM      U1      
 Computing Diagnostic #     87  oceQsw       Counter:       4   Parms: SM      U1      
 Computing Diagnostic #     84  oceFWflx     Counter:       4   Parms: SM      U1      
 Computing Diagnostic #     85  oceSflux     Counter:       4   Parms: SM      U1      
 Computing Diagnostic #     80  oceTAUX      Counter:       4   Parms: UU      U1      
           Vector  Mate for  oceTAUX      Diagnostic #     81  oceTAUY  exists 
 Computing Diagnostic #     81  oceTAUY      Counter:       4   Parms: VV      U1      
           Vector  Mate for  oceTAUY      Diagnostic #     80  oceTAUX  exists 
 Computing Diagnostic #     26  THETA        Counter:       4   Parms: SMR     MR      
 Computing Diagnostic #     27  SALT         Counter:       4   Parms: SMR     MR      
 Computing Diagnostic #     30  UVEL         Counter:       4   Parms: UUR     MR      
           Vector  Mate for  UVEL         Diagnostic #     31  VVEL     exists 
 Computing Diagnostic #     31  VVEL         Counter:       4   Parms: VVR     MR      
           Vector  Mate for  VVEL         Diagnostic #     30  UVEL     exists 
 Computing Diagnostic #    214  SIarea       Counter:       4   Parms: SM      M1      
 Computing Diagnostic #    217  SIheff       Counter:       4   Parms: SM      M1      
 Computing Diagnostic #    219  SIhsnow      Counter:       4   Parms: SM      M1      
 Computing Diagnostic #     83  sIceLoad     Counter:       4   Parms: SM      U1      
 Computing Diagnostic #    223  SIuice       Counter:       4   Parms: UU      M1      
           Vector  Mate for  SIuice       Diagnostic #    224  SIvice   exists 
 Computing Diagnostic #    224  SIvice       Counter:       4   Parms: VV      M1      
           Vector  Mate for  SIvice       Diagnostic #    223  SIuice   exists 
 Computing Diagnostic #    225  SItaux       Counter:       4   Parms: UU      U1      
           Vector  Mate for  SItaux       Diagnostic #    226  SItauy   exists 
 Computing Diagnostic #    226  SItauy       Counter:       4   Parms: VV      U1      
           Vector  Mate for  SItauy       Diagnostic #    225  SItaux   exists 
 Computing Diagnostic #    285  SIareaN      Counter:       4   Parms: SM      MX      
 Computing Diagnostic #    284  SIheffN      Counter:       4   Parms: SM      MX      
 Computing Diagnostic #    286  SIhsnowN     Counter:       4   Parms: SM      MX      
 Compute Stats, Diag. #    214  SIarea    vol(   0 ): 3.580E+14  Parms: SM      M1      
 Compute Stats, Diag. #    217  SIheff    vol(   0 ): 3.580E+14  Parms: SM      M1      
 Compute Stats, Diag. #    219  SIhsnow   vol(   0 ): 3.580E+14  Parms: SM      M1      
 Compute Stats, Diag. #     83  sIceLoad  vol(   0 ): 3.580E+14  Parms: SM      U1      
 Compute Stats, Diag. #    223  SIuice    vol(   0 ): 3.513E+14  Parms: UU      M1      
 Compute Stats, Diag. #    224  SIvice    vol(   0 ): 3.508E+14  Parms: VV      M1      
 Compute Stats, Diag. #    225  SItaux    vol(   0 ): 3.513E+14  Parms: UU      U1      
 Compute Stats, Diag. #    226  SItauy    vol(   0 ): 3.508E+14  Parms: VV      U1      
 cg2d: Sum(rhs),rhsMax =  -5.84545500937678E+01  3.00398535692889E-01
 Compute Stats, Diag. #    214  SIarea    vol(   0 ): 3.580E+14  Parms: SM      M1      
 Compute Stats, Diag. #    217  SIheff    vol(   0 ): 3.580E+14  Parms: SM      M1      
 Compute Stats, Diag. #    219  SIhsnow   vol(   0 ): 3.580E+14  Parms: SM      M1      
 Compute Stats, Diag. #     83  sIceLoad  vol(   0 ): 3.580E+14  Parms: SM      U1      
 Compute Stats, Diag. #    223  SIuice    vol(   0 ): 3.513E+14  Parms: UU      M1      
 Compute Stats, Diag. #    224  SIvice    vol(   0 ): 3.508E+14  Parms: VV      M1      
 Compute Stats, Diag. #    225  SItaux    vol(   0 ): 3.513E+14  Parms: UU      U1      
 Compute Stats, Diag. #    226  SItauy    vol(   0 ): 3.508E+14  Parms: VV      U1      
 cg2d: Sum(rhs),rhsMax =  -5.84998399094025E+01  3.00368077858047E-01
 Compute Stats, Diag. #    214  SIarea    vol(   0 ): 3.580E+14  Parms: SM      M1      
 Compute Stats, Diag. #    217  SIheff    vol(   0 ): 3.580E+14  Parms: SM      M1      
 Compute Stats, Diag. #    219  SIhsnow   vol(   0 ): 3.580E+14  Parms: SM      M1      
 Compute Stats, Diag. #     83  sIceLoad  vol(   0 ): 3.580E+14  Parms: SM      U1      
 Compute Stats, Diag. #    223  SIuice    vol(   0 ): 3.513E+14  Parms: UU      M1      
 Compute Stats, Diag. #    224  SIvice    vol(   0 ): 3.508E+14  Parms: VV      M1      
 Compute Stats, Diag. #    225  SItaux    vol(   0 ): 3.513E+14  Parms: UU      U1      
 Compute Stats, Diag. #    226  SItauy    vol(   0 ): 3.508E+14  Parms: VV      U1      
 cg2d: Sum(rhs),rhsMax =  -5.85396412152357E+01  3.00335206037136E-01
 Compute Stats, Diag. #    214  SIarea    vol(   0 ): 3.580E+14  Parms: SM      M1      
 Compute Stats, Diag. #    217  SIheff    vol(   0 ): 3.580E+14  Parms: SM      M1      
 Compute Stats, Diag. #    219  SIhsnow   vol(   0 ): 3.580E+14  Parms: SM      M1      
 Compute Stats, Diag. #     83  sIceLoad  vol(   0 ): 3.580E+14  Parms: SM      U1      
 Compute Stats, Diag. #    223  SIuice    vol(   0 ): 3.513E+14  Parms: UU      M1      
 Compute Stats, Diag. #    224  SIvice    vol(   0 ): 3.508E+14  Parms: VV      M1      
 Compute Stats, Diag. #    225  SItaux    vol(   0 ): 3.513E+14  Parms: UU      U1      
 Compute Stats, Diag. #    226  SItauy    vol(   0 ): 3.508E+14  Parms: VV      U1      
 cg2d: Sum(rhs),rhsMax =  -5.85804594505342E+01  3.00300379988589E-01
(PID.TID 0000.0001)      cg2d_init_res =   4.02254978793446E-02
(PID.TID 0000.0001)      cg2d_iters(min,last) =      -1      25
(PID.TID 0000.0001)      cg2d_last_res =   2.15810138448550E-05
(PID.TID 0000.0001) // =======================================================
(PID.TID 0000.0001) // Begin MONITOR dynamic field statistics
(PID.TID 0000.0001) // =======================================================
(PID.TID 0000.0001) %MON time_tsnumber                =                  1256
(PID.TID 0000.0001) %MON time_secondsf                =   1.1304000000000E+06
(PID.TID 0000.0001) %MON dynstat_eta_max              =   1.0193580864842E+00
(PID.TID 0000.0001) %MON dynstat_eta_min              =  -1.8618249300206E+00
(PID.TID 0000.0001) %MON dynstat_eta_mean             =   1.8530870259941E-03
(PID.TID 0000.0001) %MON dynstat_eta_sd               =   6.2633662313725E-01
(PID.TID 0000.0001) %MON dynstat_eta_del2             =   5.1189183710816E-05
(PID.TID 0000.0001) %MON dynstat_uvel_max             =   6.5894021305403E-01
(PID.TID 0000.0001) %MON dynstat_uvel_min             =  -9.3831196113642E-01
(PID.TID 0000.0001) %MON dynstat_uvel_mean            =   1.3855693754911E-03
(PID.TID 0000.0001) %MON dynstat_uvel_sd              =   1.8022712864562E-02
(PID.TID 0000.0001) %MON dynstat_uvel_del2            =   7.1836645917390E-06
(PID.TID 0000.0001) %MON dynstat_vvel_max             =   6.6736254476657E-01
(PID.TID 0000.0001) %MON dynstat_vvel_min             =  -1.0868072535615E+00
(PID.TID 0000.0001) %MON dynstat_vvel_mean            =   1.0931200964609E-03
(PID.TID 0000.0001) %MON dynstat_vvel_sd              =   1.9642245751497E-02
(PID.TID 0000.0001) %MON dynstat_vvel_del2            =   7.4890472298388E-06
(PID.TID 0000.0001) %MON dynstat_wvel_max             =   2.9610355171496E-04
(PID.TID 0000.0001) %MON dynstat_wvel_min             =  -7.6169201190272E-04
(PID.TID 0000.0001) %MON dynstat_wvel_mean            =   3.3516384742887E-09
(PID.TID 0000.0001) %MON dynstat_wvel_sd              =   1.6968143684919E-05
(PID.TID 0000.0001) %MON dynstat_wvel_del2            =   1.4692109332308E-08
(PID.TID 0000.0001) %MON dynstat_theta_max            =   3.1355013370961E+01
(PID.TID 0000.0001) %MON dynstat_theta_min            =  -2.0394780122301E+00
(PID.TID 0000.0001) %MON dynstat_theta_mean           =   3.5900314512338E+00
(PID.TID 0000.0001) %MON dynstat_theta_sd             =   4.4368744429214E+00
(PID.TID 0000.0001) %MON dynstat_theta_del2           =   8.9166770254195E-05
(PID.TID 0000.0001) %MON dynstat_salt_max             =   4.0711554012661E+01
(PID.TID 0000.0001) %MON dynstat_salt_min             =   6.4945570136248E+00
(PID.TID 0000.0001) %MON dynstat_salt_mean            =   3.4725555009496E+01
(PID.TID 0000.0001) %MON dynstat_salt_sd              =   3.7716098429782E-01
(PID.TID 0000.0001) %MON dynstat_salt_del2            =   3.6581923219599E-05
(PID.TID 0000.0001) %MON dynstat_sst_max              =   3.1354997442166E+01
(PID.TID 0000.0001) %MON dynstat_sst_min              =  -1.8062284916564E+00
(PID.TID 0000.0001) %MON dynstat_sst_mean             =   1.8445042957285E+01
(PID.TID 0000.0001) %MON dynstat_sst_sd               =   1.0317455568742E+01
(PID.TID 0000.0001) %MON dynstat_sst_del2             =   7.8402673498818E-04
(PID.TID 0000.0001) %MON dynstat_sss_max              =   3.9098172399115E+01
(PID.TID 0000.0001) %MON dynstat_sss_min              =   6.4945570136248E+00
(PID.TID 0000.0001) %MON dynstat_sss_mean             =   3.4702110867523E+01
(PID.TID 0000.0001) %MON dynstat_sss_sd               =   1.1884703813977E+00
(PID.TID 0000.0001) %MON dynstat_sss_del2             =   1.0868712463491E-03
(PID.TID 0000.0001) %MON forcing_qnet_max             =   7.2216999807240E+02
(PID.TID 0000.0001) %MON forcing_qnet_min             =  -7.1983633984586E+02
(PID.TID 0000.0001) %MON forcing_qnet_mean            =  -2.2857496899313E+01
(PID.TID 0000.0001) %MON forcing_qnet_sd              =   2.1527608909676E+02
(PID.TID 0000.0001) %MON forcing_qnet_del2            =   3.2529309509600E-01
(PID.TID 0000.0001) %MON forcing_qsw_max              =   0.0000000000000E+00
(PID.TID 0000.0001) %MON forcing_qsw_min              =  -1.0853882189353E+02
(PID.TID 0000.0001) %MON forcing_qsw_mean             =  -2.2531902943097E+01
(PID.TID 0000.0001) %MON forcing_qsw_sd               =   3.0879011810351E+01
(PID.TID 0000.0001) %MON forcing_qsw_del2             =   1.9426441321653E-02
(PID.TID 0000.0001) %MON forcing_empmr_max            =   1.4124892186373E-03
(PID.TID 0000.0001) %MON forcing_empmr_min            =  -9.3194633722305E-02
(PID.TID 0000.0001) %MON forcing_empmr_mean           =  -1.4762847451317E-06
(PID.TID 0000.0001) %MON forcing_empmr_sd             =   3.4325062040494E-04
(PID.TID 0000.0001) %MON forcing_empmr_del2           =   3.5261812238669E-06
(PID.TID 0000.0001) %MON forcing_fu_max               =   1.0512640476227E+00
(PID.TID 0000.0001) %MON forcing_fu_min               =  -9.1207367181778E-01
(PID.TID 0000.0001) %MON forcing_fu_mean              =   4.8955268487005E-03
(PID.TID 0000.0001) %MON forcing_fu_sd                =   1.2100519695720E-01
(PID.TID 0000.0001) %MON forcing_fu_del2              =   1.6008494263463E-04
(PID.TID 0000.0001) %MON forcing_fv_max               =   1.6570221781731E+00
(PID.TID 0000.0001) %MON forcing_fv_min               =  -9.1532942652702E-01
(PID.TID 0000.0001) %MON forcing_fv_mean              =  -4.7813349746997E-03
(PID.TID 0000.0001) %MON forcing_fv_sd                =   1.2782330899933E-01
(PID.TID 0000.0001) %MON forcing_fv_del2              =   1.9069398611258E-04
(PID.TID 0000.0001) %MON trAdv_CFL_u_max              =   1.2902116412894E-02
(PID.TID 0000.0001) %MON trAdv_CFL_v_max              =   1.4050557200255E-02
(PID.TID 0000.0001) %MON trAdv_CFL_w_max              =   2.0620324001595E-02
(PID.TID 0000.0001) %MON advcfl_uvel_max              =   1.1379994993091E-02
(PID.TID 0000.0001) %MON advcfl_vvel_max              =   1.3181650849733E-02
(PID.TID 0000.0001) %MON advcfl_wvel_max              =   2.2824548453366E-02
(PID.TID 0000.0001) %MON advcfl_W_hf_max              =   2.3939185684192E-02
(PID.TID 0000.0001) %MON pe_b_mean                    =   5.1603300190706E-04
(PID.TID 0000.0001) %MON ke_max                       =   6.4640818565747E-01
(PID.TID 0000.0001) %MON ke_mean                      =   3.4416822137287E-04
(PID.TID 0000.0001) %MON ke_vol                       =   1.3349985399079E+18
(PID.TID 0000.0001) %MON vort_r_min                   =  -1.2867875824305E-05
(PID.TID 0000.0001) %MON vort_r_max                   =   1.5414323065576E-05
(PID.TID 0000.0001) %MON vort_a_mean                  =  -1.9727864647440E-05
(PID.TID 0000.0001) %MON vort_a_sd                    =   7.4542996170258E-05
(PID.TID 0000.0001) %MON vort_p_mean                  =  -2.1760523435647E-05
(PID.TID 0000.0001) %MON vort_p_sd                    =   9.7246957765405E-05
(PID.TID 0000.0001) %MON surfExpan_theta_mean         =   1.2694677090838E-07
(PID.TID 0000.0001) %MON surfExpan_salt_mean          =   4.5605564183324E-08
(PID.TID 0000.0001) // =======================================================
(PID.TID 0000.0001) // End MONITOR dynamic field statistics
(PID.TID 0000.0001) // =======================================================
(PID.TID 0000.0001) // =======================================================
(PID.TID 0000.0001) // Begin MONITOR SEAICE statistics
(PID.TID 0000.0001) // =======================================================
(PID.TID 0000.0001) %MON seaice_tsnumber              =                  1256
(PID.TID 0000.0001) %MON seaice_time_sec              =   1.1304000000000E+06
(PID.TID 0000.0001) %MON seaice_uice_max              =   4.0000000000000E-01
(PID.TID 0000.0001) %MON seaice_uice_min              =  -4.0000000000000E-01
(PID.TID 0000.0001) %MON seaice_uice_mean             =  -8.3054598624025E-03
(PID.TID 0000.0001) %MON seaice_uice_sd               =   1.9802383574176E-01
(PID.TID 0000.0001) %MON seaice_uice_del2             =   2.2931571122150E-04
(PID.TID 0000.0001) %MON seaice_vice_max              =   4.0000000000000E-01
(PID.TID 0000.0001) %MON seaice_vice_min              =  -4.0000000000000E-01
(PID.TID 0000.0001) %MON seaice_vice_mean             =  -2.1960776359499E-02
(PID.TID 0000.0001) %MON seaice_vice_sd               =   2.1302038025672E-01
(PID.TID 0000.0001) %MON seaice_vice_del2             =   2.3932563818061E-04
(PID.TID 0000.0001) %MON seaice_area_max              =   9.9999999813735E-01
(PID.TID 0000.0001) %MON seaice_area_min              =   0.0000000000000E+00
(PID.TID 0000.0001) %MON seaice_area_mean             =   6.4194074679752E-02
(PID.TID 0000.0001) %MON seaice_area_sd               =   2.2688940572616E-01
(PID.TID 0000.0001) %MON seaice_area_del2             =   3.6745483171857E-04
(PID.TID 0000.0001) %MON seaice_heff_max              =   2.4872353949351E+01
(PID.TID 0000.0001) %MON seaice_heff_min              =   0.0000000000000E+00
(PID.TID 0000.0001) %MON seaice_heff_mean             =   2.1109089456043E-01
(PID.TID 0000.0001) %MON seaice_heff_sd               =   1.0652615860515E+00
(PID.TID 0000.0001) %MON seaice_heff_del2             =   3.8036030076496E-03
(PID.TID 0000.0001) %MON seaice_hsnow_max             =   8.2153088924533E+00
(PID.TID 0000.0001) %MON seaice_hsnow_min             =   0.0000000000000E+00
(PID.TID 0000.0001) %MON seaice_hsnow_mean            =   2.3848363206116E-02
(PID.TID 0000.0001) %MON seaice_hsnow_sd              =   1.5564575650874E-01
(PID.TID 0000.0001) %MON seaice_hsnow_del2            =   1.2321237059894E-03
(PID.TID 0000.0001) // =======================================================
(PID.TID 0000.0001) // End MONITOR SEAICE statistics
(PID.TID 0000.0001) // =======================================================
 Computing Diagnostic #     86  oceQnet      Counter:       4   Parms: SM      U1      
 Computing Diagnostic #     87  oceQsw       Counter:       4   Parms: SM      U1      
 Computing Diagnostic #     84  oceFWflx     Counter:       4   Parms: SM      U1      
 Computing Diagnostic #     85  oceSflux     Counter:       4   Parms: SM      U1      
 Computing Diagnostic #     80  oceTAUX      Counter:       4   Parms: UU      U1      
           Vector  Mate for  oceTAUX      Diagnostic #     81  oceTAUY  exists 
 Computing Diagnostic #     81  oceTAUY      Counter:       4   Parms: VV      U1      
           Vector  Mate for  oceTAUY      Diagnostic #     80  oceTAUX  exists 
 Computing Diagnostic #     26  THETA        Counter:       4   Parms: SMR     MR      
 Computing Diagnostic #     27  SALT         Counter:       4   Parms: SMR     MR      
 Computing Diagnostic #     30  UVEL         Counter:       4   Parms: UUR     MR      
           Vector  Mate for  UVEL         Diagnostic #     31  VVEL     exists 
 Computing Diagnostic #     31  VVEL         Counter:       4   Parms: VVR     MR      
           Vector  Mate for  VVEL         Diagnostic #     30  UVEL     exists 
 Computing Diagnostic #    214  SIarea       Counter:       4   Parms: SM      M1      
 Computing Diagnostic #    217  SIheff       Counter:       4   Parms: SM      M1      
 Computing Diagnostic #    219  SIhsnow      Counter:       4   Parms: SM      M1      
 Computing Diagnostic #     83  sIceLoad     Counter:       4   Parms: SM      U1      
 Computing Diagnostic #    223  SIuice       Counter:       4   Parms: UU      M1      
           Vector  Mate for  SIuice       Diagnostic #    224  SIvice   exists 
 Computing Diagnostic #    224  SIvice       Counter:       4   Parms: VV      M1      
           Vector  Mate for  SIvice       Diagnostic #    223  SIuice   exists 
 Computing Diagnostic #    225  SItaux       Counter:       4   Parms: UU      U1      
           Vector  Mate for  SItaux       Diagnostic #    226  SItauy   exists 
 Computing Diagnostic #    226  SItauy       Counter:       4   Parms: VV      U1      
           Vector  Mate for  SItauy       Diagnostic #    225  SItaux   exists 
 Computing Diagnostic #    285  SIareaN      Counter:       4   Parms: SM      MX      
 Computing Diagnostic #    284  SIheffN      Counter:       4   Parms: SM      MX      
 Computing Diagnostic #    286  SIhsnowN     Counter:       4   Parms: SM      MX      
 Compute Stats, Diag. #    214  SIarea    vol(   0 ): 3.580E+14  Parms: SM      M1      
 Compute Stats, Diag. #    217  SIheff    vol(   0 ): 3.580E+14  Parms: SM      M1      
 Compute Stats, Diag. #    219  SIhsnow   vol(   0 ): 3.580E+14  Parms: SM      M1      
 Compute Stats, Diag. #     83  sIceLoad  vol(   0 ): 3.580E+14  Parms: SM      U1      
 Compute Stats, Diag. #    223  SIuice    vol(   0 ): 3.513E+14  Parms: UU      M1      
 Compute Stats, Diag. #    224  SIvice    vol(   0 ): 3.508E+14  Parms: VV      M1      
 Compute Stats, Diag. #    225  SItaux    vol(   0 ): 3.513E+14  Parms: UU      U1      
 Compute Stats, Diag. #    226  SItauy    vol(   0 ): 3.508E+14  Parms: VV      U1      
 cg2d: Sum(rhs),rhsMax =  -5.86310745393594E+01  3.00264658988964E-01
 Compute Stats, Diag. #    214  SIarea    vol(   0 ): 3.580E+14  Parms: SM      M1      
 Compute Stats, Diag. #    217  SIheff    vol(   0 ): 3.580E+14  Parms: SM      M1      
 Compute Stats, Diag. #    219  SIhsnow   vol(   0 ): 3.580E+14  Parms: SM      M1      
 Compute Stats, Diag. #     83  sIceLoad  vol(   0 ): 3.580E+14  Parms: SM      U1      
 Compute Stats, Diag. #    223  SIuice    vol(   0 ): 3.513E+14  Parms: UU      M1      
 Compute Stats, Diag. #    224  SIvice    vol(   0 ): 3.508E+14  Parms: VV      M1      
 Compute Stats, Diag. #    225  SItaux    vol(   0 ): 3.513E+14  Parms: UU      U1      
 Compute Stats, Diag. #    226  SItauy    vol(   0 ): 3.508E+14  Parms: VV      U1      
 cg2d: Sum(rhs),rhsMax =  -5.86556482705781E+01  3.00228286124761E-01
 Compute Stats, Diag. #    214  SIarea    vol(   0 ): 3.580E+14  Parms: SM      M1      
 Compute Stats, Diag. #    217  SIheff    vol(   0 ): 3.580E+14  Parms: SM      M1      
 Compute Stats, Diag. #    219  SIhsnow   vol(   0 ): 3.580E+14  Parms: SM      M1      
 Compute Stats, Diag. #     83  sIceLoad  vol(   0 ): 3.580E+14  Parms: SM      U1      
 Compute Stats, Diag. #    223  SIuice    vol(   0 ): 3.513E+14  Parms: UU      M1      
 Compute Stats, Diag. #    224  SIvice    vol(   0 ): 3.508E+14  Parms: VV      M1      
 Compute Stats, Diag. #    225  SItaux    vol(   0 ): 3.513E+14  Parms: UU      U1      
 Compute Stats, Diag. #    226  SItauy    vol(   0 ): 3.508E+14  Parms: VV      U1      
 cg2d: Sum(rhs),rhsMax =  -5.86805219744007E+01  3.00192041560933E-01
 Compute Stats, Diag. #    214  SIarea    vol(   0 ): 3.580E+14  Parms: SM      M1      
 Compute Stats, Diag. #    217  SIheff    vol(   0 ): 3.580E+14  Parms: SM      M1      
 Compute Stats, Diag. #    219  SIhsnow   vol(   0 ): 3.580E+14  Parms: SM      M1      
 Compute Stats, Diag. #     83  sIceLoad  vol(   0 ): 3.580E+14  Parms: SM      U1      
 Compute Stats, Diag. #    223  SIuice    vol(   0 ): 3.513E+14  Parms: UU      M1      
 Compute Stats, Diag. #    224  SIvice    vol(   0 ): 3.508E+14  Parms: VV      M1      
 Compute Stats, Diag. #    225  SItaux    vol(   0 ): 3.513E+14  Parms: UU      U1      
 Compute Stats, Diag. #    226  SItauy    vol(   0 ): 3.508E+14  Parms: VV      U1      
 cg2d: Sum(rhs),rhsMax =  -5.87043244723193E+01  3.00156050709167E-01
 Computing Diagnostic #     86  oceQnet      Counter:       4   Parms: SM      U1      
 Computing Diagnostic #     87  oceQsw       Counter:       4   Parms: SM      U1      
 Computing Diagnostic #     84  oceFWflx     Counter:       4   Parms: SM      U1      
 Computing Diagnostic #     85  oceSflux     Counter:       4   Parms: SM      U1      
 Computing Diagnostic #     80  oceTAUX      Counter:       4   Parms: UU      U1      
           Vector  Mate for  oceTAUX      Diagnostic #     81  oceTAUY  exists 
 Computing Diagnostic #     81  oceTAUY      Counter:       4   Parms: VV      U1      
           Vector  Mate for  oceTAUY      Diagnostic #     80  oceTAUX  exists 
 Computing Diagnostic #     26  THETA        Counter:       4   Parms: SMR     MR      
 Computing Diagnostic #     27  SALT         Counter:       4   Parms: SMR     MR      
 Computing Diagnostic #     30  UVEL         Counter:       4   Parms: UUR     MR      
           Vector  Mate for  UVEL         Diagnostic #     31  VVEL     exists 
 Computing Diagnostic #     31  VVEL         Counter:       4   Parms: VVR     MR      
           Vector  Mate for  VVEL         Diagnostic #     30  UVEL     exists 
 Computing Diagnostic #    214  SIarea       Counter:       4   Parms: SM      M1      
 Computing Diagnostic #    217  SIheff       Counter:       4   Parms: SM      M1      
 Computing Diagnostic #    219  SIhsnow      Counter:       4   Parms: SM      M1      
 Computing Diagnostic #     83  sIceLoad     Counter:       4   Parms: SM      U1      
 Computing Diagnostic #    223  SIuice       Counter:       4   Parms: UU      M1      
           Vector  Mate for  SIuice       Diagnostic #    224  SIvice   exists 
 Computing Diagnostic #    224  SIvice       Counter:       4   Parms: VV      M1      
           Vector  Mate for  SIvice       Diagnostic #    223  SIuice   exists 
 Computing Diagnostic #    225  SItaux       Counter:       4   Parms: UU      U1      
           Vector  Mate for  SItaux       Diagnostic #    226  SItauy   exists 
 Computing Diagnostic #    226  SItauy       Counter:       4   Parms: VV      U1      
           Vector  Mate for  SItauy       Diagnostic #    225  SItaux   exists 
 Computing Diagnostic #    285  SIareaN      Counter:       4   Parms: SM      MX      
 Computing Diagnostic #    284  SIheffN      Counter:       4   Parms: SM      MX      
 Computing Diagnostic #    286  SIhsnowN     Counter:       4   Parms: SM      MX      
 Compute Stats, Diag. #    214  SIarea    vol(   0 ): 3.580E+14  Parms: SM      M1      
 Compute Stats, Diag. #    217  SIheff    vol(   0 ): 3.580E+14  Parms: SM      M1      
 Compute Stats, Diag. #    219  SIhsnow   vol(   0 ): 3.580E+14  Parms: SM      M1      
 Compute Stats, Diag. #     83  sIceLoad  vol(   0 ): 3.580E+14  Parms: SM      U1      
 Compute Stats, Diag. #    223  SIuice    vol(   0 ): 3.513E+14  Parms: UU      M1      
 Compute Stats, Diag. #    224  SIvice    vol(   0 ): 3.508E+14  Parms: VV      M1      
 Compute Stats, Diag. #    225  SItaux    vol(   0 ): 3.513E+14  Parms: UU      U1      
 Compute Stats, Diag. #    226  SItauy    vol(   0 ): 3.508E+14  Parms: VV      U1      
 cg2d: Sum(rhs),rhsMax =  -5.87254194219979E+01  3.00120145840621E-01
 Compute Stats, Diag. #    214  SIarea    vol(   0 ): 3.580E+14  Parms: SM      M1      
 Compute Stats, Diag. #    217  SIheff    vol(   0 ): 3.580E+14  Parms: SM      M1      
 Compute Stats, Diag. #    219  SIhsnow   vol(   0 ): 3.580E+14  Parms: SM      M1      
 Compute Stats, Diag. #     83  sIceLoad  vol(   0 ): 3.580E+14  Parms: SM      U1      
 Compute Stats, Diag. #    223  SIuice    vol(   0 ): 3.513E+14  Parms: UU      M1      
 Compute Stats, Diag. #    224  SIvice    vol(   0 ): 3.508E+14  Parms: VV      M1      
 Compute Stats, Diag. #    225  SItaux    vol(   0 ): 3.513E+14  Parms: UU      U1      
 Compute Stats, Diag. #    226  SItauy    vol(   0 ): 3.508E+14  Parms: VV      U1      
 cg2d: Sum(rhs),rhsMax =  -5.87443894071166E+01  3.00084366699558E-01
 Compute Stats, Diag. #    214  SIarea    vol(   0 ): 3.580E+14  Parms: SM      M1      
 Compute Stats, Diag. #    217  SIheff    vol(   0 ): 3.580E+14  Parms: SM      M1      
 Compute Stats, Diag. #    219  SIhsnow   vol(   0 ): 3.580E+14  Parms: SM      M1      
 Compute Stats, Diag. #     83  sIceLoad  vol(   0 ): 3.580E+14  Parms: SM      U1      
 Compute Stats, Diag. #    223  SIuice    vol(   0 ): 3.513E+14  Parms: UU      M1      
 Compute Stats, Diag. #    224  SIvice    vol(   0 ): 3.508E+14  Parms: VV      M1      
 Compute Stats, Diag. #    225  SItaux    vol(   0 ): 3.513E+14  Parms: UU      U1      
 Compute Stats, Diag. #    226  SItauy    vol(   0 ): 3.508E+14  Parms: VV      U1      
 cg2d: Sum(rhs),rhsMax =  -5.87585476249366E+01  3.00050320722481E-01
 Compute Stats, Diag. #    214  SIarea    vol(   0 ): 3.580E+14  Parms: SM      M1      
 Compute Stats, Diag. #    217  SIheff    vol(   0 ): 3.580E+14  Parms: SM      M1      
 Compute Stats, Diag. #    219  SIhsnow   vol(   0 ): 3.580E+14  Parms: SM      M1      
 Compute Stats, Diag. #     83  sIceLoad  vol(   0 ): 3.580E+14  Parms: SM      U1      
 Compute Stats, Diag. #    223  SIuice    vol(   0 ): 3.513E+14  Parms: UU      M1      
 Compute Stats, Diag. #    224  SIvice    vol(   0 ): 3.508E+14  Parms: VV      M1      
 Compute Stats, Diag. #    225  SItaux    vol(   0 ): 3.513E+14  Parms: UU      U1      
 Compute Stats, Diag. #    226  SItauy    vol(   0 ): 3.508E+14  Parms: VV      U1      
 cg2d: Sum(rhs),rhsMax =  -5.87733503453446E+01  3.00016876505835E-01
(PID.TID 0000.0001)      cg2d_init_res =   3.98007013512806E-02
(PID.TID 0000.0001)      cg2d_iters(min,last) =      -1      25
(PID.TID 0000.0001)      cg2d_last_res =   2.18295096312866E-05
(PID.TID 0000.0001) // =======================================================
(PID.TID 0000.0001) // Begin MONITOR dynamic field statistics
(PID.TID 0000.0001) // =======================================================
(PID.TID 0000.0001) %MON time_tsnumber                =                  1264
(PID.TID 0000.0001) %MON time_secondsf                =   1.1376000000000E+06
(PID.TID 0000.0001) %MON dynstat_eta_max              =   1.0196619348568E+00
(PID.TID 0000.0001) %MON dynstat_eta_min              =  -1.8628744705217E+00
(PID.TID 0000.0001) %MON dynstat_eta_mean             =   1.8591887810496E-03
(PID.TID 0000.0001) %MON dynstat_eta_sd               =   6.2653608378224E-01
(PID.TID 0000.0001) %MON dynstat_eta_del2             =   5.1101065005608E-05
(PID.TID 0000.0001) %MON dynstat_uvel_max             =   6.5625002717674E-01
(PID.TID 0000.0001) %MON dynstat_uvel_min             =  -9.4529505694704E-01
(PID.TID 0000.0001) %MON dynstat_uvel_mean            =   1.3855115132609E-03
(PID.TID 0000.0001) %MON dynstat_uvel_sd              =   1.8031218522533E-02
(PID.TID 0000.0001) %MON dynstat_uvel_del2            =   7.2084859237111E-06
(PID.TID 0000.0001) %MON dynstat_vvel_max             =   6.6243176055416E-01
(PID.TID 0000.0001) %MON dynstat_vvel_min             =  -1.0928446410645E+00
(PID.TID 0000.0001) %MON dynstat_vvel_mean            =   1.1008743750549E-03
(PID.TID 0000.0001) %MON dynstat_vvel_sd              =   1.9653727856302E-02
(PID.TID 0000.0001) %MON dynstat_vvel_del2            =   7.4860985344170E-06
(PID.TID 0000.0001) %MON dynstat_wvel_max             =   2.9888495694938E-04
(PID.TID 0000.0001) %MON dynstat_wvel_min             =  -7.6413865162539E-04
(PID.TID 0000.0001) %MON dynstat_wvel_mean            =   2.4778470185073E-09
(PID.TID 0000.0001) %MON dynstat_wvel_sd              =   1.6896316566555E-05
(PID.TID 0000.0001) %MON dynstat_wvel_del2            =   1.4786793203537E-08
(PID.TID 0000.0001) %MON dynstat_theta_max            =   3.1341971189162E+01
(PID.TID 0000.0001) %MON dynstat_theta_min            =  -2.0394677460138E+00
(PID.TID 0000.0001) %MON dynstat_theta_mean           =   3.5900393533743E+00
(PID.TID 0000.0001) %MON dynstat_theta_sd             =   4.4369343619955E+00
(PID.TID 0000.0001) %MON dynstat_theta_del2           =   8.9157823082536E-05
(PID.TID 0000.0001) %MON dynstat_salt_max             =   4.0711554132385E+01
(PID.TID 0000.0001) %MON dynstat_salt_min             =   6.5173859405832E+00
(PID.TID 0000.0001) %MON dynstat_salt_mean            =   3.4725554934894E+01
(PID.TID 0000.0001) %MON dynstat_salt_sd              =   3.7716400520019E-01
(PID.TID 0000.0001) %MON dynstat_salt_del2            =   3.6642959274396E-05
(PID.TID 0000.0001) %MON dynstat_sst_max              =   3.1341971189162E+01
(PID.TID 0000.0001) %MON dynstat_sst_min              =  -1.8065793718507E+00
(PID.TID 0000.0001) %MON dynstat_sst_mean             =   1.8447203084632E+01
(PID.TID 0000.0001) %MON dynstat_sst_sd               =   1.0319631692452E+01
(PID.TID 0000.0001) %MON dynstat_sst_del2             =   7.8563942657590E-04
(PID.TID 0000.0001) %MON dynstat_sss_max              =   3.9098202381924E+01
(PID.TID 0000.0001) %MON dynstat_sss_min              =   6.5173859405832E+00
(PID.TID 0000.0001) %MON dynstat_sss_mean             =   3.4702186116650E+01
(PID.TID 0000.0001) %MON dynstat_sss_sd               =   1.1888017072503E+00
(PID.TID 0000.0001) %MON dynstat_sss_del2             =   1.0893747808014E-03
(PID.TID 0000.0001) %MON forcing_qnet_max             =   7.9621826171875E+02
(PID.TID 0000.0001) %MON forcing_qnet_min             =  -4.8432568562435E+03
(PID.TID 0000.0001) %MON forcing_qnet_mean            =  -1.1343107408858E+01
(PID.TID 0000.0001) %MON forcing_qnet_sd              =   2.0682482305024E+02
(PID.TID 0000.0001) %MON forcing_qnet_del2            =   3.3907680950289E-01
(PID.TID 0000.0001) %MON forcing_qsw_max              =   0.0000000000000E+00
(PID.TID 0000.0001) %MON forcing_qsw_min              =  -1.0936239668687E+02
(PID.TID 0000.0001) %MON forcing_qsw_mean             =  -2.1134237582252E+01
(PID.TID 0000.0001) %MON forcing_qsw_sd               =   2.9845451765850E+01
(PID.TID 0000.0001) %MON forcing_qsw_del2             =   2.1168457927497E-02
(PID.TID 0000.0001) %MON forcing_empmr_max            =   1.4702691696584E-03
(PID.TID 0000.0001) %MON forcing_empmr_min            =  -4.8008862882853E-02
(PID.TID 0000.0001) %MON forcing_empmr_mean           =  -5.3537420634905E-07
(PID.TID 0000.0001) %MON forcing_empmr_sd             =   2.7754089344471E-04
(PID.TID 0000.0001) %MON forcing_empmr_del2           =   2.8880256354686E-06
(PID.TID 0000.0001) %MON forcing_fu_max               =   1.1042900085449E+00
(PID.TID 0000.0001) %MON forcing_fu_min               =  -9.8185855150223E-01
(PID.TID 0000.0001) %MON forcing_fu_mean              =   4.2687266264080E-03
(PID.TID 0000.0001) %MON forcing_fu_sd                =   1.2231276331172E-01
(PID.TID 0000.0001) %MON forcing_fu_del2              =   1.6404894131357E-04
(PID.TID 0000.0001) %MON forcing_fv_max               =   1.8633131384850E+00
(PID.TID 0000.0001) %MON forcing_fv_min               =  -9.4091433286667E-01
(PID.TID 0000.0001) %MON forcing_fv_mean              =  -4.1850433266258E-03
(PID.TID 0000.0001) %MON forcing_fv_sd                =   1.2992959364456E-01
(PID.TID 0000.0001) %MON forcing_fv_del2              =   1.9432773445007E-04
(PID.TID 0000.0001) %MON trAdv_CFL_u_max              =   1.3250242679176E-02
(PID.TID 0000.0001) %MON trAdv_CFL_v_max              =   1.4023646043262E-02
(PID.TID 0000.0001) %MON trAdv_CFL_w_max              =   2.0576886652684E-02
(PID.TID 0000.0001) %MON advcfl_uvel_max              =   1.1541945156407E-02
(PID.TID 0000.0001) %MON advcfl_vvel_max              =   1.3154412058503E-02
(PID.TID 0000.0001) %MON advcfl_wvel_max              =   2.2783099666949E-02
(PID.TID 0000.0001) %MON advcfl_W_hf_max              =   2.3895754075585E-02
(PID.TID 0000.0001) %MON pe_b_mean                    =   5.1636174779326E-04
(PID.TID 0000.0001) %MON ke_max                       =   6.5668647239863E-01
(PID.TID 0000.0001) %MON ke_mean                      =   3.4454178158902E-04
(PID.TID 0000.0001) %MON ke_vol                       =   1.3349985423870E+18
(PID.TID 0000.0001) %MON vort_r_min                   =  -1.2999337753427E-05
(PID.TID 0000.0001) %MON vort_r_max                   =   1.5607851889930E-05
(PID.TID 0000.0001) %MON vort_a_mean                  =  -1.9727864647440E-05
(PID.TID 0000.0001) %MON vort_a_sd                    =   7.4542998644682E-05
(PID.TID 0000.0001) %MON vort_p_mean                  =  -2.1760523407726E-05
(PID.TID 0000.0001) %MON vort_p_sd                    =   9.7246932429553E-05
(PID.TID 0000.0001) %MON surfExpan_theta_mean         =   1.2735028693509E-07
(PID.TID 0000.0001) %MON surfExpan_salt_mean          =   3.4644525439094E-08
(PID.TID 0000.0001) // =======================================================
(PID.TID 0000.0001) // End MONITOR dynamic field statistics
(PID.TID 0000.0001) // =======================================================
(PID.TID 0000.0001) // =======================================================
(PID.TID 0000.0001) // Begin MONITOR SEAICE statistics
(PID.TID 0000.0001) // =======================================================
(PID.TID 0000.0001) %MON seaice_tsnumber              =                  1264
(PID.TID 0000.0001) %MON seaice_time_sec              =   1.1376000000000E+06
(PID.TID 0000.0001) %MON seaice_uice_max              =   4.0000000000000E-01
(PID.TID 0000.0001) %MON seaice_uice_min              =  -4.0000000000000E-01
(PID.TID 0000.0001) %MON seaice_uice_mean             =  -8.3054598624025E-03
(PID.TID 0000.0001) %MON seaice_uice_sd               =   1.9802383574176E-01
(PID.TID 0000.0001) %MON seaice_uice_del2             =   2.2931571122150E-04
(PID.TID 0000.0001) %MON seaice_vice_max              =   4.0000000000000E-01
(PID.TID 0000.0001) %MON seaice_vice_min              =  -4.0000000000000E-01
(PID.TID 0000.0001) %MON seaice_vice_mean             =  -2.1960776359499E-02
(PID.TID 0000.0001) %MON seaice_vice_sd               =   2.1302038025672E-01
(PID.TID 0000.0001) %MON seaice_vice_del2             =   2.3932563818061E-04
(PID.TID 0000.0001) %MON seaice_area_max              =   1.0000000000000E+00
(PID.TID 0000.0001) %MON seaice_area_min              =   0.0000000000000E+00
(PID.TID 0000.0001) %MON seaice_area_mean             =   6.4167395932882E-02
(PID.TID 0000.0001) %MON seaice_area_sd               =   2.2684271127304E-01
(PID.TID 0000.0001) %MON seaice_area_del2             =   3.6703578483737E-04
(PID.TID 0000.0001) %MON seaice_heff_max              =   2.4871129142353E+01
(PID.TID 0000.0001) %MON seaice_heff_min              =   0.0000000000000E+00
(PID.TID 0000.0001) %MON seaice_heff_mean             =   2.1107038838460E-01
(PID.TID 0000.0001) %MON seaice_heff_sd               =   1.0652496191779E+00
(PID.TID 0000.0001) %MON seaice_heff_del2             =   3.8030224842450E-03
(PID.TID 0000.0001) %MON seaice_hsnow_max             =   8.2149066941056E+00
(PID.TID 0000.0001) %MON seaice_hsnow_min             =   0.0000000000000E+00
(PID.TID 0000.0001) %MON seaice_hsnow_mean            =   2.3843984211222E-02
(PID.TID 0000.0001) %MON seaice_hsnow_sd              =   1.5564220179814E-01
(PID.TID 0000.0001) %MON seaice_hsnow_del2            =   1.2320667179860E-03
(PID.TID 0000.0001) // =======================================================
(PID.TID 0000.0001) // End MONITOR SEAICE statistics
(PID.TID 0000.0001) // =======================================================
 Computing Diagnostic #     86  oceQnet      Counter:       4   Parms: SM      U1      
 Computing Diagnostic #     87  oceQsw       Counter:       4   Parms: SM      U1      
 Computing Diagnostic #     84  oceFWflx     Counter:       4   Parms: SM      U1      
 Computing Diagnostic #     85  oceSflux     Counter:       4   Parms: SM      U1      
 Computing Diagnostic #     80  oceTAUX      Counter:       4   Parms: UU      U1      
           Vector  Mate for  oceTAUX      Diagnostic #     81  oceTAUY  exists 
 Computing Diagnostic #     81  oceTAUY      Counter:       4   Parms: VV      U1      
           Vector  Mate for  oceTAUY      Diagnostic #     80  oceTAUX  exists 
 Computing Diagnostic #     26  THETA        Counter:       4   Parms: SMR     MR      
 Computing Diagnostic #     27  SALT         Counter:       4   Parms: SMR     MR      
 Computing Diagnostic #     30  UVEL         Counter:       4   Parms: UUR     MR      
           Vector  Mate for  UVEL         Diagnostic #     31  VVEL     exists 
 Computing Diagnostic #     31  VVEL         Counter:       4   Parms: VVR     MR      
           Vector  Mate for  VVEL         Diagnostic #     30  UVEL     exists 
 Computing Diagnostic #    214  SIarea       Counter:       4   Parms: SM      M1      
 Computing Diagnostic #    217  SIheff       Counter:       4   Parms: SM      M1      
 Computing Diagnostic #    219  SIhsnow      Counter:       4   Parms: SM      M1      
 Computing Diagnostic #     83  sIceLoad     Counter:       4   Parms: SM      U1      
 Computing Diagnostic #    223  SIuice       Counter:       4   Parms: UU      M1      
           Vector  Mate for  SIuice       Diagnostic #    224  SIvice   exists 
 Computing Diagnostic #    224  SIvice       Counter:       4   Parms: VV      M1      
           Vector  Mate for  SIvice       Diagnostic #    223  SIuice   exists 
 Computing Diagnostic #    225  SItaux       Counter:       4   Parms: UU      U1      
           Vector  Mate for  SItaux       Diagnostic #    226  SItauy   exists 
 Computing Diagnostic #    226  SItauy       Counter:       4   Parms: VV      U1      
           Vector  Mate for  SItauy       Diagnostic #    225  SItaux   exists 
 Computing Diagnostic #    285  SIareaN      Counter:       4   Parms: SM      MX      
 Computing Diagnostic #    284  SIheffN      Counter:       4   Parms: SM      MX      
 Computing Diagnostic #    286  SIhsnowN     Counter:       4   Parms: SM      MX      
 Compute Stats, Diag. #    214  SIarea    vol(   0 ): 3.580E+14  Parms: SM      M1      
 Compute Stats, Diag. #    217  SIheff    vol(   0 ): 3.580E+14  Parms: SM      M1      
 Compute Stats, Diag. #    219  SIhsnow   vol(   0 ): 3.580E+14  Parms: SM      M1      
 Compute Stats, Diag. #     83  sIceLoad  vol(   0 ): 3.580E+14  Parms: SM      U1      
 Compute Stats, Diag. #    223  SIuice    vol(   0 ): 3.513E+14  Parms: UU      M1      
 Compute Stats, Diag. #    224  SIvice    vol(   0 ): 3.508E+14  Parms: VV      M1      
 Compute Stats, Diag. #    225  SItaux    vol(   0 ): 3.513E+14  Parms: UU      U1      
 Compute Stats, Diag. #    226  SItauy    vol(   0 ): 3.508E+14  Parms: VV      U1      
 cg2d: Sum(rhs),rhsMax =  -5.87980663069551E+01  2.99984877053153E-01
 Compute Stats, Diag. #    214  SIarea    vol(   0 ): 3.580E+14  Parms: SM      M1      
 Compute Stats, Diag. #    217  SIheff    vol(   0 ): 3.580E+14  Parms: SM      M1      
 Compute Stats, Diag. #    219  SIhsnow   vol(   0 ): 3.580E+14  Parms: SM      M1      
 Compute Stats, Diag. #     83  sIceLoad  vol(   0 ): 3.580E+14  Parms: SM      U1      
 Compute Stats, Diag. #    223  SIuice    vol(   0 ): 3.513E+14  Parms: UU      M1      
 Compute Stats, Diag. #    224  SIvice    vol(   0 ): 3.508E+14  Parms: VV      M1      
 Compute Stats, Diag. #    225  SItaux    vol(   0 ): 3.513E+14  Parms: UU      U1      
 Compute Stats, Diag. #    226  SItauy    vol(   0 ): 3.508E+14  Parms: VV      U1      
 cg2d: Sum(rhs),rhsMax =  -5.88211365229116E+01  2.99954979900183E-01
 Compute Stats, Diag. #    214  SIarea    vol(   0 ): 3.580E+14  Parms: SM      M1      
 Compute Stats, Diag. #    217  SIheff    vol(   0 ): 3.580E+14  Parms: SM      M1      
 Compute Stats, Diag. #    219  SIhsnow   vol(   0 ): 3.580E+14  Parms: SM      M1      
 Compute Stats, Diag. #     83  sIceLoad  vol(   0 ): 3.580E+14  Parms: SM      U1      
 Compute Stats, Diag. #    223  SIuice    vol(   0 ): 3.513E+14  Parms: UU      M1      
 Compute Stats, Diag. #    224  SIvice    vol(   0 ): 3.508E+14  Parms: VV      M1      
 Compute Stats, Diag. #    225  SItaux    vol(   0 ): 3.513E+14  Parms: UU      U1      
 Compute Stats, Diag. #    226  SItauy    vol(   0 ): 3.508E+14  Parms: VV      U1      
 cg2d: Sum(rhs),rhsMax =  -5.88470801621228E+01  2.99928229723010E-01
 Compute Stats, Diag. #    214  SIarea    vol(   0 ): 3.580E+14  Parms: SM      M1      
 Compute Stats, Diag. #    217  SIheff    vol(   0 ): 3.580E+14  Parms: SM      M1      
 Compute Stats, Diag. #    219  SIhsnow   vol(   0 ): 3.580E+14  Parms: SM      M1      
 Compute Stats, Diag. #     83  sIceLoad  vol(   0 ): 3.580E+14  Parms: SM      U1      
 Compute Stats, Diag. #    223  SIuice    vol(   0 ): 3.513E+14  Parms: UU      M1      
 Compute Stats, Diag. #    224  SIvice    vol(   0 ): 3.508E+14  Parms: VV      M1      
 Compute Stats, Diag. #    225  SItaux    vol(   0 ): 3.513E+14  Parms: UU      U1      
 Compute Stats, Diag. #    226  SItauy    vol(   0 ): 3.508E+14  Parms: VV      U1      
 cg2d: Sum(rhs),rhsMax =  -5.88747688699440E+01  2.99905048167108E-01
 Computing Diagnostic #     86  oceQnet      Counter:       4   Parms: SM      U1      
 Computing Diagnostic #     87  oceQsw       Counter:       4   Parms: SM      U1      
 Computing Diagnostic #     84  oceFWflx     Counter:       4   Parms: SM      U1      
 Computing Diagnostic #     85  oceSflux     Counter:       4   Parms: SM      U1      
 Computing Diagnostic #     80  oceTAUX      Counter:       4   Parms: UU      U1      
           Vector  Mate for  oceTAUX      Diagnostic #     81  oceTAUY  exists 
 Computing Diagnostic #     81  oceTAUY      Counter:       4   Parms: VV      U1      
           Vector  Mate for  oceTAUY      Diagnostic #     80  oceTAUX  exists 
 Computing Diagnostic #     26  THETA        Counter:       4   Parms: SMR     MR      
 Computing Diagnostic #     27  SALT         Counter:       4   Parms: SMR     MR      
 Computing Diagnostic #     30  UVEL         Counter:       4   Parms: UUR     MR      
           Vector  Mate for  UVEL         Diagnostic #     31  VVEL     exists 
 Computing Diagnostic #     31  VVEL         Counter:       4   Parms: VVR     MR      
           Vector  Mate for  VVEL         Diagnostic #     30  UVEL     exists 
 Computing Diagnostic #    214  SIarea       Counter:       4   Parms: SM      M1      
 Computing Diagnostic #    217  SIheff       Counter:       4   Parms: SM      M1      
 Computing Diagnostic #    219  SIhsnow      Counter:       4   Parms: SM      M1      
 Computing Diagnostic #     83  sIceLoad     Counter:       4   Parms: SM      U1      
 Computing Diagnostic #    223  SIuice       Counter:       4   Parms: UU      M1      
           Vector  Mate for  SIuice       Diagnostic #    224  SIvice   exists 
 Computing Diagnostic #    224  SIvice       Counter:       4   Parms: VV      M1      
           Vector  Mate for  SIvice       Diagnostic #    223  SIuice   exists 
 Computing Diagnostic #    225  SItaux       Counter:       4   Parms: UU      U1      
           Vector  Mate for  SItaux       Diagnostic #    226  SItauy   exists 
 Computing Diagnostic #    226  SItauy       Counter:       4   Parms: VV      U1      
           Vector  Mate for  SItauy       Diagnostic #    225  SItaux   exists 
 Computing Diagnostic #    285  SIareaN      Counter:       4   Parms: SM      MX      
 Computing Diagnostic #    284  SIheffN      Counter:       4   Parms: SM      MX      
 Computing Diagnostic #    286  SIhsnowN     Counter:       4   Parms: SM      MX      
 Compute Stats, Diag. #    214  SIarea    vol(   0 ): 3.580E+14  Parms: SM      M1      
 Compute Stats, Diag. #    217  SIheff    vol(   0 ): 3.580E+14  Parms: SM      M1      
 Compute Stats, Diag. #    219  SIhsnow   vol(   0 ): 3.580E+14  Parms: SM      M1      
 Compute Stats, Diag. #     83  sIceLoad  vol(   0 ): 3.580E+14  Parms: SM      U1      
 Compute Stats, Diag. #    223  SIuice    vol(   0 ): 3.513E+14  Parms: UU      M1      
 Compute Stats, Diag. #    224  SIvice    vol(   0 ): 3.508E+14  Parms: VV      M1      
 Compute Stats, Diag. #    225  SItaux    vol(   0 ): 3.513E+14  Parms: UU      U1      
 Compute Stats, Diag. #    226  SItauy    vol(   0 ): 3.508E+14  Parms: VV      U1      
 cg2d: Sum(rhs),rhsMax =  -5.89063247829716E+01  2.99885755223109E-01
 Compute Stats, Diag. #    214  SIarea    vol(   0 ): 3.580E+14  Parms: SM      M1      
 Compute Stats, Diag. #    217  SIheff    vol(   0 ): 3.580E+14  Parms: SM      M1      
 Compute Stats, Diag. #    219  SIhsnow   vol(   0 ): 3.580E+14  Parms: SM      M1      
 Compute Stats, Diag. #     83  sIceLoad  vol(   0 ): 3.580E+14  Parms: SM      U1      
 Compute Stats, Diag. #    223  SIuice    vol(   0 ): 3.513E+14  Parms: UU      M1      
 Compute Stats, Diag. #    224  SIvice    vol(   0 ): 3.508E+14  Parms: VV      M1      
 Compute Stats, Diag. #    225  SItaux    vol(   0 ): 3.513E+14  Parms: UU      U1      
 Compute Stats, Diag. #    226  SItauy    vol(   0 ): 3.508E+14  Parms: VV      U1      
 cg2d: Sum(rhs),rhsMax =  -5.89360030537483E+01  2.99870123863826E-01
 Compute Stats, Diag. #    214  SIarea    vol(   0 ): 3.580E+14  Parms: SM      M1      
 Compute Stats, Diag. #    217  SIheff    vol(   0 ): 3.580E+14  Parms: SM      M1      
 Compute Stats, Diag. #    219  SIhsnow   vol(   0 ): 3.580E+14  Parms: SM      M1      
 Compute Stats, Diag. #     83  sIceLoad  vol(   0 ): 3.580E+14  Parms: SM      U1      
 Compute Stats, Diag. #    223  SIuice    vol(   0 ): 3.513E+14  Parms: UU      M1      
 Compute Stats, Diag. #    224  SIvice    vol(   0 ): 3.508E+14  Parms: VV      M1      
 Compute Stats, Diag. #    225  SItaux    vol(   0 ): 3.513E+14  Parms: UU      U1      
 Compute Stats, Diag. #    226  SItauy    vol(   0 ): 3.508E+14  Parms: VV      U1      
 cg2d: Sum(rhs),rhsMax =  -5.89694038315778E+01  2.99857930951987E-01
 Compute Stats, Diag. #    214  SIarea    vol(   0 ): 3.580E+14  Parms: SM      M1      
 Compute Stats, Diag. #    217  SIheff    vol(   0 ): 3.580E+14  Parms: SM      M1      
 Compute Stats, Diag. #    219  SIhsnow   vol(   0 ): 3.580E+14  Parms: SM      M1      
 Compute Stats, Diag. #     83  sIceLoad  vol(   0 ): 3.580E+14  Parms: SM      U1      
 Compute Stats, Diag. #    223  SIuice    vol(   0 ): 3.513E+14  Parms: UU      M1      
 Compute Stats, Diag. #    224  SIvice    vol(   0 ): 3.508E+14  Parms: VV      M1      
 Compute Stats, Diag. #    225  SItaux    vol(   0 ): 3.513E+14  Parms: UU      U1      
 Compute Stats, Diag. #    226  SItauy    vol(   0 ): 3.508E+14  Parms: VV      U1      
 cg2d: Sum(rhs),rhsMax =  -5.90017898945947E+01  2.99849072275292E-01
(PID.TID 0000.0001)      cg2d_init_res =   3.87089024106042E-02
(PID.TID 0000.0001)      cg2d_iters(min,last) =      -1      25
(PID.TID 0000.0001)      cg2d_last_res =   2.16924302821175E-05
(PID.TID 0000.0001) // =======================================================
(PID.TID 0000.0001) // Begin MONITOR dynamic field statistics
(PID.TID 0000.0001) // =======================================================
(PID.TID 0000.0001) %MON time_tsnumber                =                  1272
(PID.TID 0000.0001) %MON time_secondsf                =   1.1448000000000E+06
(PID.TID 0000.0001) %MON dynstat_eta_max              =   1.0199485840007E+00
(PID.TID 0000.0001) %MON dynstat_eta_min              =  -1.8643953201312E+00
(PID.TID 0000.0001) %MON dynstat_eta_mean             =   1.8664150535797E-03
(PID.TID 0000.0001) %MON dynstat_eta_sd               =   6.2674200670273E-01
(PID.TID 0000.0001) %MON dynstat_eta_del2             =   5.1135387530339E-05
(PID.TID 0000.0001) %MON dynstat_uvel_max             =   6.4862889837077E-01
(PID.TID 0000.0001) %MON dynstat_uvel_min             =  -9.5033276704338E-01
(PID.TID 0000.0001) %MON dynstat_uvel_mean            =   1.3879343405530E-03
(PID.TID 0000.0001) %MON dynstat_uvel_sd              =   1.8037932385056E-02
(PID.TID 0000.0001) %MON dynstat_uvel_del2            =   7.2363405539844E-06
(PID.TID 0000.0001) %MON dynstat_vvel_max             =   6.5684224673258E-01
(PID.TID 0000.0001) %MON dynstat_vvel_min             =  -1.0970711933777E+00
(PID.TID 0000.0001) %MON dynstat_vvel_mean            =   1.1113715674292E-03
(PID.TID 0000.0001) %MON dynstat_vvel_sd              =   1.9646902384640E-02
(PID.TID 0000.0001) %MON dynstat_vvel_del2            =   7.4805966431360E-06
(PID.TID 0000.0001) %MON dynstat_wvel_max             =   3.0328551302240E-04
(PID.TID 0000.0001) %MON dynstat_wvel_min             =  -7.6683490759343E-04
(PID.TID 0000.0001) %MON dynstat_wvel_mean            =   1.7031416995826E-09
(PID.TID 0000.0001) %MON dynstat_wvel_sd              =   1.6784615580566E-05
(PID.TID 0000.0001) %MON dynstat_wvel_del2            =   1.4893553249937E-08
(PID.TID 0000.0001) %MON dynstat_theta_max            =   3.1343583937093E+01
(PID.TID 0000.0001) %MON dynstat_theta_min            =  -2.0394577423464E+00
(PID.TID 0000.0001) %MON dynstat_theta_mean           =   3.5900386983792E+00
(PID.TID 0000.0001) %MON dynstat_theta_sd             =   4.4369583662237E+00
(PID.TID 0000.0001) %MON dynstat_theta_del2           =   8.9155670377667E-05
(PID.TID 0000.0001) %MON dynstat_salt_max             =   4.0711554208928E+01
(PID.TID 0000.0001) %MON dynstat_salt_min             =   6.5832689247118E+00
(PID.TID 0000.0001) %MON dynstat_salt_mean            =   3.4725554856758E+01
(PID.TID 0000.0001) %MON dynstat_salt_sd              =   3.7716655651165E-01
(PID.TID 0000.0001) %MON dynstat_salt_del2            =   3.6752091147609E-05
(PID.TID 0000.0001) %MON dynstat_sst_max              =   3.1343583937093E+01
(PID.TID 0000.0001) %MON dynstat_sst_min              =  -1.8057770248840E+00
(PID.TID 0000.0001) %MON dynstat_sst_mean             =   1.8446500137535E+01
(PID.TID 0000.0001) %MON dynstat_sst_sd               =   1.0320707718064E+01
(PID.TID 0000.0001) %MON dynstat_sst_del2             =   7.8789998731625E-04
(PID.TID 0000.0001) %MON dynstat_sss_max              =   3.9098222388614E+01
(PID.TID 0000.0001) %MON dynstat_sss_min              =   6.5832689247118E+00
(PID.TID 0000.0001) %MON dynstat_sss_mean             =   3.4702226494404E+01
(PID.TID 0000.0001) %MON dynstat_sss_sd               =   1.1890626726817E+00
(PID.TID 0000.0001) %MON dynstat_sss_del2             =   1.0943154060987E-03
(PID.TID 0000.0001) %MON forcing_qnet_max             =   7.8647155761719E+02
(PID.TID 0000.0001) %MON forcing_qnet_min             =  -6.5910404534434E+02
(PID.TID 0000.0001) %MON forcing_qnet_mean            =   9.7048119150725E+00
(PID.TID 0000.0001) %MON forcing_qnet_sd              =   1.8656547401642E+02
(PID.TID 0000.0001) %MON forcing_qnet_del2            =   3.1734367997212E-01
(PID.TID 0000.0001) %MON forcing_qsw_max              =   0.0000000000000E+00
(PID.TID 0000.0001) %MON forcing_qsw_min              =  -1.0686254954576E+02
(PID.TID 0000.0001) %MON forcing_qsw_mean             =  -1.8563438130573E+01
(PID.TID 0000.0001) %MON forcing_qsw_sd               =   2.7467886055829E+01
(PID.TID 0000.0001) %MON forcing_qsw_del2             =   2.2263372983257E-02
(PID.TID 0000.0001) %MON forcing_empmr_max            =   1.7772081773728E-03
(PID.TID 0000.0001) %MON forcing_empmr_min            =  -4.4604189693928E-02
(PID.TID 0000.0001) %MON forcing_empmr_mean           =  -1.1713159677956E-06
(PID.TID 0000.0001) %MON forcing_empmr_sd             =   2.6187026685072E-04
(PID.TID 0000.0001) %MON forcing_empmr_del2           =   3.5879410330526E-06
(PID.TID 0000.0001) %MON forcing_fu_max               =   1.1348413825035E+00
(PID.TID 0000.0001) %MON forcing_fu_min               =  -1.1629249453545E+00
(PID.TID 0000.0001) %MON forcing_fu_mean              =   3.8270284997854E-03
(PID.TID 0000.0001) %MON forcing_fu_sd                =   1.2365313381059E-01
(PID.TID 0000.0001) %MON forcing_fu_del2              =   1.6860600133830E-04
(PID.TID 0000.0001) %MON forcing_fv_max               =   1.9498516321182E+00
(PID.TID 0000.0001) %MON forcing_fv_min               =  -9.1864290833473E-01
(PID.TID 0000.0001) %MON forcing_fv_mean              =  -4.4605429334472E-03
(PID.TID 0000.0001) %MON forcing_fv_sd                =   1.3055399693319E-01
(PID.TID 0000.0001) %MON forcing_fv_del2              =   1.9789162656846E-04
(PID.TID 0000.0001) %MON trAdv_CFL_u_max              =   1.3425058932265E-02
(PID.TID 0000.0001) %MON trAdv_CFL_v_max              =   1.3918747336684E-02
(PID.TID 0000.0001) %MON trAdv_CFL_w_max              =   2.0555102115971E-02
(PID.TID 0000.0001) %MON advcfl_uvel_max              =   1.1713858862419E-02
(PID.TID 0000.0001) %MON advcfl_vvel_max              =   1.3048236415709E-02
(PID.TID 0000.0001) %MON advcfl_wvel_max              =   2.2762264248025E-02
(PID.TID 0000.0001) %MON advcfl_W_hf_max              =   2.3873980585824E-02
(PID.TID 0000.0001) %MON pe_b_mean                    =   5.1670125915942E-04
(PID.TID 0000.0001) %MON ke_max                       =   6.6397780999842E-01
(PID.TID 0000.0001) %MON ke_mean                      =   3.4454359537251E-04
(PID.TID 0000.0001) %MON ke_vol                       =   1.3349985447750E+18
(PID.TID 0000.0001) %MON vort_r_min                   =  -1.3160268687641E-05
(PID.TID 0000.0001) %MON vort_r_max                   =   1.5734950748458E-05
(PID.TID 0000.0001) %MON vort_a_mean                  =  -1.9727864647440E-05
(PID.TID 0000.0001) %MON vort_a_sd                    =   7.4543001586522E-05
(PID.TID 0000.0001) %MON vort_p_mean                  =  -2.1760523373127E-05
(PID.TID 0000.0001) %MON vort_p_sd                    =   9.7246883744288E-05
(PID.TID 0000.0001) %MON surfExpan_theta_mean         =   1.2656586456461E-07
(PID.TID 0000.0001) %MON surfExpan_salt_mean          =   2.9121119749086E-08
(PID.TID 0000.0001) // =======================================================
(PID.TID 0000.0001) // End MONITOR dynamic field statistics
(PID.TID 0000.0001) // =======================================================
(PID.TID 0000.0001) // =======================================================
(PID.TID 0000.0001) // Begin MONITOR SEAICE statistics
(PID.TID 0000.0001) // =======================================================
(PID.TID 0000.0001) %MON seaice_tsnumber              =                  1272
(PID.TID 0000.0001) %MON seaice_time_sec              =   1.1448000000000E+06
(PID.TID 0000.0001) %MON seaice_uice_max              =   4.0000000000000E-01
(PID.TID 0000.0001) %MON seaice_uice_min              =  -4.0000000000000E-01
(PID.TID 0000.0001) %MON seaice_uice_mean             =  -8.3054598624025E-03
(PID.TID 0000.0001) %MON seaice_uice_sd               =   1.9802383574176E-01
(PID.TID 0000.0001) %MON seaice_uice_del2             =   2.2931571122150E-04
(PID.TID 0000.0001) %MON seaice_vice_max              =   4.0000000000000E-01
(PID.TID 0000.0001) %MON seaice_vice_min              =  -4.0000000000000E-01
(PID.TID 0000.0001) %MON seaice_vice_mean             =  -2.1960776359499E-02
(PID.TID 0000.0001) %MON seaice_vice_sd               =   2.1302038025672E-01
(PID.TID 0000.0001) %MON seaice_vice_del2             =   2.3932563818061E-04
(PID.TID 0000.0001) %MON seaice_area_max              =   9.9999999813735E-01
(PID.TID 0000.0001) %MON seaice_area_min              =   0.0000000000000E+00
(PID.TID 0000.0001) %MON seaice_area_mean             =   6.4137223578994E-02
(PID.TID 0000.0001) %MON seaice_area_sd               =   2.2679038970204E-01
(PID.TID 0000.0001) %MON seaice_area_del2             =   3.6659731252502E-04
(PID.TID 0000.0001) %MON seaice_heff_max              =   2.4869905810221E+01
(PID.TID 0000.0001) %MON seaice_heff_min              =   0.0000000000000E+00
(PID.TID 0000.0001) %MON seaice_heff_mean             =   2.1104847359500E-01
(PID.TID 0000.0001) %MON seaice_heff_sd               =   1.0652379414337E+00
(PID.TID 0000.0001) %MON seaice_heff_del2             =   3.8024402402827E-03
(PID.TID 0000.0001) %MON seaice_hsnow_max             =   8.2145032208355E+00
(PID.TID 0000.0001) %MON seaice_hsnow_min             =   0.0000000000000E+00
(PID.TID 0000.0001) %MON seaice_hsnow_mean            =   2.3839327654379E-02
(PID.TID 0000.0001) %MON seaice_hsnow_sd              =   1.5563960164711E-01
(PID.TID 0000.0001) %MON seaice_hsnow_del2            =   1.2320191390827E-03
(PID.TID 0000.0001) // =======================================================
(PID.TID 0000.0001) // End MONITOR SEAICE statistics
(PID.TID 0000.0001) // =======================================================
 Computing Diagnostic #     86  oceQnet      Counter:       4   Parms: SM      U1      
 Computing Diagnostic #     87  oceQsw       Counter:       4   Parms: SM      U1      
 Computing Diagnostic #     84  oceFWflx     Counter:       4   Parms: SM      U1      
 Computing Diagnostic #     85  oceSflux     Counter:       4   Parms: SM      U1      
 Computing Diagnostic #     80  oceTAUX      Counter:       4   Parms: UU      U1      
           Vector  Mate for  oceTAUX      Diagnostic #     81  oceTAUY  exists 
 Computing Diagnostic #     81  oceTAUY      Counter:       4   Parms: VV      U1      
           Vector  Mate for  oceTAUY      Diagnostic #     80  oceTAUX  exists 
 Computing Diagnostic #     26  THETA        Counter:       4   Parms: SMR     MR      
 Computing Diagnostic #     27  SALT         Counter:       4   Parms: SMR     MR      
 Computing Diagnostic #     30  UVEL         Counter:       4   Parms: UUR     MR      
           Vector  Mate for  UVEL         Diagnostic #     31  VVEL     exists 
 Computing Diagnostic #     31  VVEL         Counter:       4   Parms: VVR     MR      
           Vector  Mate for  VVEL         Diagnostic #     30  UVEL     exists 
 Computing Diagnostic #    214  SIarea       Counter:       4   Parms: SM      M1      
 Computing Diagnostic #    217  SIheff       Counter:       4   Parms: SM      M1      
 Computing Diagnostic #    219  SIhsnow      Counter:       4   Parms: SM      M1      
 Computing Diagnostic #     83  sIceLoad     Counter:       4   Parms: SM      U1      
 Computing Diagnostic #    223  SIuice       Counter:       4   Parms: UU      M1      
           Vector  Mate for  SIuice       Diagnostic #    224  SIvice   exists 
 Computing Diagnostic #    224  SIvice       Counter:       4   Parms: VV      M1      
           Vector  Mate for  SIvice       Diagnostic #    223  SIuice   exists 
 Computing Diagnostic #    225  SItaux       Counter:       4   Parms: UU      U1      
           Vector  Mate for  SItaux       Diagnostic #    226  SItauy   exists 
 Computing Diagnostic #    226  SItauy       Counter:       4   Parms: VV      U1      
           Vector  Mate for  SItauy       Diagnostic #    225  SItaux   exists 
 Computing Diagnostic #    285  SIareaN      Counter:       4   Parms: SM      MX      
 Computing Diagnostic #    284  SIheffN      Counter:       4   Parms: SM      MX      
 Computing Diagnostic #    286  SIhsnowN     Counter:       4   Parms: SM      MX      
 Compute Stats, Diag. #    214  SIarea    vol(   0 ): 3.580E+14  Parms: SM      M1      
 Compute Stats, Diag. #    217  SIheff    vol(   0 ): 3.580E+14  Parms: SM      M1      
 Compute Stats, Diag. #    219  SIhsnow   vol(   0 ): 3.580E+14  Parms: SM      M1      
 Compute Stats, Diag. #     83  sIceLoad  vol(   0 ): 3.580E+14  Parms: SM      U1      
 Compute Stats, Diag. #    223  SIuice    vol(   0 ): 3.513E+14  Parms: UU      M1      
 Compute Stats, Diag. #    224  SIvice    vol(   0 ): 3.508E+14  Parms: VV      M1      
 Compute Stats, Diag. #    225  SItaux    vol(   0 ): 3.513E+14  Parms: UU      U1      
 Compute Stats, Diag. #    226  SItauy    vol(   0 ): 3.508E+14  Parms: VV      U1      
 cg2d: Sum(rhs),rhsMax =  -5.90402586050056E+01  2.99843432128477E-01
 Compute Stats, Diag. #    214  SIarea    vol(   0 ): 3.580E+14  Parms: SM      M1      
 Compute Stats, Diag. #    217  SIheff    vol(   0 ): 3.580E+14  Parms: SM      M1      
 Compute Stats, Diag. #    219  SIhsnow   vol(   0 ): 3.580E+14  Parms: SM      M1      
 Compute Stats, Diag. #     83  sIceLoad  vol(   0 ): 3.580E+14  Parms: SM      U1      
 Compute Stats, Diag. #    223  SIuice    vol(   0 ): 3.513E+14  Parms: UU      M1      
 Compute Stats, Diag. #    224  SIvice    vol(   0 ): 3.508E+14  Parms: VV      M1      
 Compute Stats, Diag. #    225  SItaux    vol(   0 ): 3.513E+14  Parms: UU      U1      
 Compute Stats, Diag. #    226  SItauy    vol(   0 ): 3.508E+14  Parms: VV      U1      
 cg2d: Sum(rhs),rhsMax =  -5.90853883617981E+01  2.99840892258435E-01
 Compute Stats, Diag. #    214  SIarea    vol(   0 ): 3.580E+14  Parms: SM      M1      
 Compute Stats, Diag. #    217  SIheff    vol(   0 ): 3.580E+14  Parms: SM      M1      
 Compute Stats, Diag. #    219  SIhsnow   vol(   0 ): 3.580E+14  Parms: SM      M1      
 Compute Stats, Diag. #     83  sIceLoad  vol(   0 ): 3.580E+14  Parms: SM      U1      
 Compute Stats, Diag. #    223  SIuice    vol(   0 ): 3.513E+14  Parms: UU      M1      
 Compute Stats, Diag. #    224  SIvice    vol(   0 ): 3.508E+14  Parms: VV      M1      
 Compute Stats, Diag. #    225  SItaux    vol(   0 ): 3.513E+14  Parms: UU      U1      
 Compute Stats, Diag. #    226  SItauy    vol(   0 ): 3.508E+14  Parms: VV      U1      
 cg2d: Sum(rhs),rhsMax =  -5.91254239050713E+01  2.99840879210466E-01
 Compute Stats, Diag. #    214  SIarea    vol(   0 ): 3.580E+14  Parms: SM      M1      
 Compute Stats, Diag. #    217  SIheff    vol(   0 ): 3.580E+14  Parms: SM      M1      
 Compute Stats, Diag. #    219  SIhsnow   vol(   0 ): 3.580E+14  Parms: SM      M1      
 Compute Stats, Diag. #     83  sIceLoad  vol(   0 ): 3.580E+14  Parms: SM      U1      
 Compute Stats, Diag. #    223  SIuice    vol(   0 ): 3.513E+14  Parms: UU      M1      
 Compute Stats, Diag. #    224  SIvice    vol(   0 ): 3.508E+14  Parms: VV      M1      
 Compute Stats, Diag. #    225  SItaux    vol(   0 ): 3.513E+14  Parms: UU      U1      
 Compute Stats, Diag. #    226  SItauy    vol(   0 ): 3.508E+14  Parms: VV      U1      
 cg2d: Sum(rhs),rhsMax =  -5.91664241560875E+01  2.99843690889565E-01
 Computing Diagnostic #     86  oceQnet      Counter:       4   Parms: SM      U1      
 Computing Diagnostic #     87  oceQsw       Counter:       4   Parms: SM      U1      
 Computing Diagnostic #     84  oceFWflx     Counter:       4   Parms: SM      U1      
 Computing Diagnostic #     85  oceSflux     Counter:       4   Parms: SM      U1      
 Computing Diagnostic #     80  oceTAUX      Counter:       4   Parms: UU      U1      
           Vector  Mate for  oceTAUX      Diagnostic #     81  oceTAUY  exists 
 Computing Diagnostic #     81  oceTAUY      Counter:       4   Parms: VV      U1      
           Vector  Mate for  oceTAUY      Diagnostic #     80  oceTAUX  exists 
 Computing Diagnostic #     26  THETA        Counter:       4   Parms: SMR     MR      
 Computing Diagnostic #     27  SALT         Counter:       4   Parms: SMR     MR      
 Computing Diagnostic #     30  UVEL         Counter:       4   Parms: UUR     MR      
           Vector  Mate for  UVEL         Diagnostic #     31  VVEL     exists 
 Computing Diagnostic #     31  VVEL         Counter:       4   Parms: VVR     MR      
           Vector  Mate for  VVEL         Diagnostic #     30  UVEL     exists 
 Computing Diagnostic #    214  SIarea       Counter:       4   Parms: SM      M1      
 Computing Diagnostic #    217  SIheff       Counter:       4   Parms: SM      M1      
 Computing Diagnostic #    219  SIhsnow      Counter:       4   Parms: SM      M1      
 Computing Diagnostic #     83  sIceLoad     Counter:       4   Parms: SM      U1      
 Computing Diagnostic #    223  SIuice       Counter:       4   Parms: UU      M1      
           Vector  Mate for  SIuice       Diagnostic #    224  SIvice   exists 
 Computing Diagnostic #    224  SIvice       Counter:       4   Parms: VV      M1      
           Vector  Mate for  SIvice       Diagnostic #    223  SIuice   exists 
 Computing Diagnostic #    225  SItaux       Counter:       4   Parms: UU      U1      
           Vector  Mate for  SItaux       Diagnostic #    226  SItauy   exists 
 Computing Diagnostic #    226  SItauy       Counter:       4   Parms: VV      U1      
           Vector  Mate for  SItauy       Diagnostic #    225  SItaux   exists 
 Computing Diagnostic #    285  SIareaN      Counter:       4   Parms: SM      MX      
 Computing Diagnostic #    284  SIheffN      Counter:       4   Parms: SM      MX      
 Computing Diagnostic #    286  SIhsnowN     Counter:       4   Parms: SM      MX      
 Compute Stats, Diag. #    214  SIarea    vol(   0 ): 3.580E+14  Parms: SM      M1      
 Compute Stats, Diag. #    217  SIheff    vol(   0 ): 3.580E+14  Parms: SM      M1      
 Compute Stats, Diag. #    219  SIhsnow   vol(   0 ): 3.580E+14  Parms: SM      M1      
 Compute Stats, Diag. #     83  sIceLoad  vol(   0 ): 3.580E+14  Parms: SM      U1      
 Compute Stats, Diag. #    223  SIuice    vol(   0 ): 3.513E+14  Parms: UU      M1      
 Compute Stats, Diag. #    224  SIvice    vol(   0 ): 3.508E+14  Parms: VV      M1      
 Compute Stats, Diag. #    225  SItaux    vol(   0 ): 3.513E+14  Parms: UU      U1      
 Compute Stats, Diag. #    226  SItauy    vol(   0 ): 3.508E+14  Parms: VV      U1      
 cg2d: Sum(rhs),rhsMax =  -5.92154335900793E+01  2.99848833432130E-01
 Compute Stats, Diag. #    214  SIarea    vol(   0 ): 3.580E+14  Parms: SM      M1      
 Compute Stats, Diag. #    217  SIheff    vol(   0 ): 3.580E+14  Parms: SM      M1      
 Compute Stats, Diag. #    219  SIhsnow   vol(   0 ): 3.580E+14  Parms: SM      M1      
 Compute Stats, Diag. #     83  sIceLoad  vol(   0 ): 3.580E+14  Parms: SM      U1      
 Compute Stats, Diag. #    223  SIuice    vol(   0 ): 3.513E+14  Parms: UU      M1      
 Compute Stats, Diag. #    224  SIvice    vol(   0 ): 3.508E+14  Parms: VV      M1      
 Compute Stats, Diag. #    225  SItaux    vol(   0 ): 3.513E+14  Parms: UU      U1      
 Compute Stats, Diag. #    226  SItauy    vol(   0 ): 3.508E+14  Parms: VV      U1      
 cg2d: Sum(rhs),rhsMax =  -5.92625948478241E+01  2.99856653752806E-01
 Compute Stats, Diag. #    214  SIarea    vol(   0 ): 3.580E+14  Parms: SM      M1      
 Compute Stats, Diag. #    217  SIheff    vol(   0 ): 3.580E+14  Parms: SM      M1      
 Compute Stats, Diag. #    219  SIhsnow   vol(   0 ): 3.580E+14  Parms: SM      M1      
 Compute Stats, Diag. #     83  sIceLoad  vol(   0 ): 3.580E+14  Parms: SM      U1      
 Compute Stats, Diag. #    223  SIuice    vol(   0 ): 3.513E+14  Parms: UU      M1      
 Compute Stats, Diag. #    224  SIvice    vol(   0 ): 3.508E+14  Parms: VV      M1      
 Compute Stats, Diag. #    225  SItaux    vol(   0 ): 3.513E+14  Parms: UU      U1      
 Compute Stats, Diag. #    226  SItauy    vol(   0 ): 3.508E+14  Parms: VV      U1      
 cg2d: Sum(rhs),rhsMax =  -5.93069294927993E+01  2.99866577259710E-01
 Compute Stats, Diag. #    214  SIarea    vol(   0 ): 3.580E+14  Parms: SM      M1      
 Compute Stats, Diag. #    217  SIheff    vol(   0 ): 3.580E+14  Parms: SM      M1      
 Compute Stats, Diag. #    219  SIhsnow   vol(   0 ): 3.580E+14  Parms: SM      M1      
 Compute Stats, Diag. #     83  sIceLoad  vol(   0 ): 3.580E+14  Parms: SM      U1      
 Compute Stats, Diag. #    223  SIuice    vol(   0 ): 3.513E+14  Parms: UU      M1      
 Compute Stats, Diag. #    224  SIvice    vol(   0 ): 3.508E+14  Parms: VV      M1      
 Compute Stats, Diag. #    225  SItaux    vol(   0 ): 3.513E+14  Parms: UU      U1      
 Compute Stats, Diag. #    226  SItauy    vol(   0 ): 3.508E+14  Parms: VV      U1      
 cg2d: Sum(rhs),rhsMax =  -5.93596186887079E+01  2.99878711349602E-01
(PID.TID 0000.0001)      cg2d_init_res =   3.88459451971829E-02
(PID.TID 0000.0001)      cg2d_iters(min,last) =      -1      25
(PID.TID 0000.0001)      cg2d_last_res =   2.05736268334367E-05
(PID.TID 0000.0001) // =======================================================
(PID.TID 0000.0001) // Begin MONITOR dynamic field statistics
(PID.TID 0000.0001) // =======================================================
(PID.TID 0000.0001) %MON time_tsnumber                =                  1280
(PID.TID 0000.0001) %MON time_secondsf                =   1.1520000000000E+06
(PID.TID 0000.0001) %MON dynstat_eta_max              =   1.0196796332369E+00
(PID.TID 0000.0001) %MON dynstat_eta_min              =  -1.8662635766457E+00
(PID.TID 0000.0001) %MON dynstat_eta_mean             =   1.8777343211669E-03
(PID.TID 0000.0001) %MON dynstat_eta_sd               =   6.2693199854178E-01
(PID.TID 0000.0001) %MON dynstat_eta_del2             =   5.1075546078641E-05
(PID.TID 0000.0001) %MON dynstat_uvel_max             =   6.4257393489521E-01
(PID.TID 0000.0001) %MON dynstat_uvel_min             =  -9.5278223936874E-01
(PID.TID 0000.0001) %MON dynstat_uvel_mean            =   1.3908011205690E-03
(PID.TID 0000.0001) %MON dynstat_uvel_sd              =   1.8041117548612E-02
(PID.TID 0000.0001) %MON dynstat_uvel_del2            =   7.2664988894602E-06
(PID.TID 0000.0001) %MON dynstat_vvel_max             =   6.5202273836857E-01
(PID.TID 0000.0001) %MON dynstat_vvel_min             =  -1.0997693169816E+00
(PID.TID 0000.0001) %MON dynstat_vvel_mean            =   1.1203695352646E-03
(PID.TID 0000.0001) %MON dynstat_vvel_sd              =   1.9633483467713E-02
(PID.TID 0000.0001) %MON dynstat_vvel_del2            =   7.4955220310648E-06
(PID.TID 0000.0001) %MON dynstat_wvel_max             =   3.0456986538416E-04
(PID.TID 0000.0001) %MON dynstat_wvel_min             =  -7.6860580363846E-04
(PID.TID 0000.0001) %MON dynstat_wvel_mean            =   1.4547947410907E-09
(PID.TID 0000.0001) %MON dynstat_wvel_sd              =   1.6666791488872E-05
(PID.TID 0000.0001) %MON dynstat_wvel_del2            =   1.5008151609032E-08
(PID.TID 0000.0001) %MON dynstat_theta_max            =   3.1350351891699E+01
(PID.TID 0000.0001) %MON dynstat_theta_min            =  -2.0394480157581E+00
(PID.TID 0000.0001) %MON dynstat_theta_mean           =   3.5900290871313E+00
(PID.TID 0000.0001) %MON dynstat_theta_sd             =   4.4369477658699E+00
(PID.TID 0000.0001) %MON dynstat_theta_del2           =   8.9154315778894E-05
(PID.TID 0000.0001) %MON dynstat_salt_max             =   4.0711554243205E+01
(PID.TID 0000.0001) %MON dynstat_salt_min             =   6.6487066982364E+00
(PID.TID 0000.0001) %MON dynstat_salt_mean            =   3.4725554771876E+01
(PID.TID 0000.0001) %MON dynstat_salt_sd              =   3.7716888812526E-01
(PID.TID 0000.0001) %MON dynstat_salt_del2            =   3.6918215681321E-05
(PID.TID 0000.0001) %MON dynstat_sst_max              =   3.1350351891699E+01
(PID.TID 0000.0001) %MON dynstat_sst_min              =  -1.8057988048083E+00
(PID.TID 0000.0001) %MON dynstat_sst_mean             =   1.8442999651532E+01
(PID.TID 0000.0001) %MON dynstat_sst_sd               =   1.0321128221562E+01
(PID.TID 0000.0001) %MON dynstat_sst_del2             =   7.8988628638951E-04
(PID.TID 0000.0001) %MON dynstat_sss_max              =   3.9098241032009E+01
(PID.TID 0000.0001) %MON dynstat_sss_min              =   6.6487066982364E+00
(PID.TID 0000.0001) %MON dynstat_sss_mean             =   3.4702208064569E+01
(PID.TID 0000.0001) %MON dynstat_sss_sd               =   1.1893044873816E+00
(PID.TID 0000.0001) %MON dynstat_sss_del2             =   1.1022468463132E-03
(PID.TID 0000.0001) %MON forcing_qnet_max             =   7.9848543951073E+02
(PID.TID 0000.0001) %MON forcing_qnet_min             =  -9.7542205810547E+02
(PID.TID 0000.0001) %MON forcing_qnet_mean            =   2.7494544460142E+01
(PID.TID 0000.0001) %MON forcing_qnet_sd              =   1.7686627288827E+02
(PID.TID 0000.0001) %MON forcing_qnet_del2            =   3.2475492706439E-01
(PID.TID 0000.0001) %MON forcing_qsw_max              =   0.0000000000000E+00
(PID.TID 0000.0001) %MON forcing_qsw_min              =  -1.0979045422882E+02
(PID.TID 0000.0001) %MON forcing_qsw_mean             =  -1.6392807987580E+01
(PID.TID 0000.0001) %MON forcing_qsw_sd               =   2.6215555045719E+01
(PID.TID 0000.0001) %MON forcing_qsw_del2             =   2.1338454996973E-02
(PID.TID 0000.0001) %MON forcing_empmr_max            =   8.4621855057776E-04
(PID.TID 0000.0001) %MON forcing_empmr_min            =  -4.6331435441971E-02
(PID.TID 0000.0001) %MON forcing_empmr_mean           =  -1.9056251595194E-06
(PID.TID 0000.0001) %MON forcing_empmr_sd             =   2.6660189144521E-04
(PID.TID 0000.0001) %MON forcing_empmr_del2           =   3.6284527381734E-06
(PID.TID 0000.0001) %MON forcing_fu_max               =   1.1379104852676E+00
(PID.TID 0000.0001) %MON forcing_fu_min               =  -1.1594066023827E+00
(PID.TID 0000.0001) %MON forcing_fu_mean              =   3.8240462022811E-03
(PID.TID 0000.0001) %MON forcing_fu_sd                =   1.2551103871872E-01
(PID.TID 0000.0001) %MON forcing_fu_del2              =   1.7259758386027E-04
(PID.TID 0000.0001) %MON forcing_fv_max               =   1.8382468819618E+00
(PID.TID 0000.0001) %MON forcing_fv_min               =  -9.2823806405067E-01
(PID.TID 0000.0001) %MON forcing_fv_mean              =  -5.4384085835881E-03
(PID.TID 0000.0001) %MON forcing_fv_sd                =   1.3144820160259E-01
(PID.TID 0000.0001) %MON forcing_fv_del2              =   2.0026821246281E-04
(PID.TID 0000.0001) %MON trAdv_CFL_u_max              =   1.3606807652644E-02
(PID.TID 0000.0001) %MON trAdv_CFL_v_max              =   1.3745535432391E-02
(PID.TID 0000.0001) %MON trAdv_CFL_w_max              =   2.0522275161683E-02
(PID.TID 0000.0001) %MON advcfl_uvel_max              =   1.1892589417486E-02
(PID.TID 0000.0001) %MON advcfl_vvel_max              =   1.2872916042359E-02
(PID.TID 0000.0001) %MON advcfl_wvel_max              =   2.2730858661443E-02
(PID.TID 0000.0001) %MON advcfl_W_hf_max              =   2.3841171823816E-02
(PID.TID 0000.0001) %MON pe_b_mean                    =   5.1701462585957E-04
(PID.TID 0000.0001) %MON ke_max                       =   6.6977273939642E-01
(PID.TID 0000.0001) %MON ke_mean                      =   3.4435831078903E-04
(PID.TID 0000.0001) %MON ke_vol                       =   1.3349985485975E+18
(PID.TID 0000.0001) %MON vort_r_min                   =  -1.3303851183642E-05
(PID.TID 0000.0001) %MON vort_r_max                   =   1.5806660942971E-05
(PID.TID 0000.0001) %MON vort_a_mean                  =  -1.9727864647440E-05
(PID.TID 0000.0001) %MON vort_a_sd                    =   7.4543003745898E-05
(PID.TID 0000.0001) %MON vort_p_mean                  =  -2.1760523325215E-05
(PID.TID 0000.0001) %MON vort_p_sd                    =   9.7246790921628E-05
(PID.TID 0000.0001) %MON surfExpan_theta_mean         =   1.3882501686895E-07
(PID.TID 0000.0001) %MON surfExpan_salt_mean          =   3.2569938764589E-08
(PID.TID 0000.0001) // =======================================================
(PID.TID 0000.0001) // End MONITOR dynamic field statistics
(PID.TID 0000.0001) // =======================================================
(PID.TID 0000.0001) // =======================================================
(PID.TID 0000.0001) // Begin MONITOR SEAICE statistics
(PID.TID 0000.0001) // =======================================================
(PID.TID 0000.0001) %MON seaice_tsnumber              =                  1280
(PID.TID 0000.0001) %MON seaice_time_sec              =   1.1520000000000E+06
(PID.TID 0000.0001) %MON seaice_uice_max              =   4.0000000000000E-01
(PID.TID 0000.0001) %MON seaice_uice_min              =  -4.0000000000000E-01
(PID.TID 0000.0001) %MON seaice_uice_mean             =  -8.3054598624025E-03
(PID.TID 0000.0001) %MON seaice_uice_sd               =   1.9802383574176E-01
(PID.TID 0000.0001) %MON seaice_uice_del2             =   2.2931571122150E-04
(PID.TID 0000.0001) %MON seaice_vice_max              =   4.0000000000000E-01
(PID.TID 0000.0001) %MON seaice_vice_min              =  -4.0000000000000E-01
(PID.TID 0000.0001) %MON seaice_vice_mean             =  -2.1960776359499E-02
(PID.TID 0000.0001) %MON seaice_vice_sd               =   2.1302038025672E-01
(PID.TID 0000.0001) %MON seaice_vice_del2             =   2.3932563818061E-04
(PID.TID 0000.0001) %MON seaice_area_max              =   9.9999999813735E-01
(PID.TID 0000.0001) %MON seaice_area_min              =   0.0000000000000E+00
(PID.TID 0000.0001) %MON seaice_area_mean             =   6.4107369283918E-02
(PID.TID 0000.0001) %MON seaice_area_sd               =   2.2673931248469E-01
(PID.TID 0000.0001) %MON seaice_area_del2             =   3.6616901473483E-04
(PID.TID 0000.0001) %MON seaice_heff_max              =   2.4868668604060E+01
(PID.TID 0000.0001) %MON seaice_heff_min              =   0.0000000000000E+00
(PID.TID 0000.0001) %MON seaice_heff_mean             =   2.1102709343366E-01
(PID.TID 0000.0001) %MON seaice_heff_sd               =   1.0652267272911E+00
(PID.TID 0000.0001) %MON seaice_heff_del2             =   3.8018630914515E-03
(PID.TID 0000.0001) %MON seaice_hsnow_max             =   8.2140944960993E+00
(PID.TID 0000.0001) %MON seaice_hsnow_min             =   0.0000000000000E+00
(PID.TID 0000.0001) %MON seaice_hsnow_mean            =   2.3839868556191E-02
(PID.TID 0000.0001) %MON seaice_hsnow_sd              =   1.5564003357560E-01
(PID.TID 0000.0001) %MON seaice_hsnow_del2            =   1.2319730981678E-03
(PID.TID 0000.0001) // =======================================================
(PID.TID 0000.0001) // End MONITOR SEAICE statistics
(PID.TID 0000.0001) // =======================================================
 Computing Diagnostic #     86  oceQnet      Counter:       4   Parms: SM      U1      
 Computing Diagnostic #     87  oceQsw       Counter:       4   Parms: SM      U1      
 Computing Diagnostic #     84  oceFWflx     Counter:       4   Parms: SM      U1      
 Computing Diagnostic #     85  oceSflux     Counter:       4   Parms: SM      U1      
 Computing Diagnostic #     80  oceTAUX      Counter:       4   Parms: UU      U1      
           Vector  Mate for  oceTAUX      Diagnostic #     81  oceTAUY  exists 
 Computing Diagnostic #     81  oceTAUY      Counter:       4   Parms: VV      U1      
           Vector  Mate for  oceTAUY      Diagnostic #     80  oceTAUX  exists 
 Computing Diagnostic #     26  THETA        Counter:       4   Parms: SMR     MR      
 Computing Diagnostic #     27  SALT         Counter:       4   Parms: SMR     MR      
 Computing Diagnostic #     30  UVEL         Counter:       4   Parms: UUR     MR      
           Vector  Mate for  UVEL         Diagnostic #     31  VVEL     exists 
 Computing Diagnostic #     31  VVEL         Counter:       4   Parms: VVR     MR      
           Vector  Mate for  VVEL         Diagnostic #     30  UVEL     exists 
 Computing Diagnostic #    214  SIarea       Counter:       4   Parms: SM      M1      
 Computing Diagnostic #    217  SIheff       Counter:       4   Parms: SM      M1      
 Computing Diagnostic #    219  SIhsnow      Counter:       4   Parms: SM      M1      
 Computing Diagnostic #     83  sIceLoad     Counter:       4   Parms: SM      U1      
 Computing Diagnostic #    223  SIuice       Counter:       4   Parms: UU      M1      
           Vector  Mate for  SIuice       Diagnostic #    224  SIvice   exists 
 Computing Diagnostic #    224  SIvice       Counter:       4   Parms: VV      M1      
           Vector  Mate for  SIvice       Diagnostic #    223  SIuice   exists 
 Computing Diagnostic #    225  SItaux       Counter:       4   Parms: UU      U1      
           Vector  Mate for  SItaux       Diagnostic #    226  SItauy   exists 
 Computing Diagnostic #    226  SItauy       Counter:       4   Parms: VV      U1      
           Vector  Mate for  SItauy       Diagnostic #    225  SItaux   exists 
 Computing Diagnostic #    285  SIareaN      Counter:       4   Parms: SM      MX      
 Computing Diagnostic #    284  SIheffN      Counter:       4   Parms: SM      MX      
 Computing Diagnostic #    286  SIhsnowN     Counter:       4   Parms: SM      MX      
 Compute Stats, Diag. #    214  SIarea    vol(   0 ): 3.580E+14  Parms: SM      M1      
 Compute Stats, Diag. #    217  SIheff    vol(   0 ): 3.580E+14  Parms: SM      M1      
 Compute Stats, Diag. #    219  SIhsnow   vol(   0 ): 3.580E+14  Parms: SM      M1      
 Compute Stats, Diag. #     83  sIceLoad  vol(   0 ): 3.580E+14  Parms: SM      U1      
 Compute Stats, Diag. #    223  SIuice    vol(   0 ): 3.513E+14  Parms: UU      M1      
 Compute Stats, Diag. #    224  SIvice    vol(   0 ): 3.508E+14  Parms: VV      M1      
 Compute Stats, Diag. #    225  SItaux    vol(   0 ): 3.513E+14  Parms: UU      U1      
 Compute Stats, Diag. #    226  SItauy    vol(   0 ): 3.508E+14  Parms: VV      U1      
 cg2d: Sum(rhs),rhsMax =  -5.94099268550388E+01  2.99891491497572E-01
 Compute Stats, Diag. #    214  SIarea    vol(   0 ): 3.580E+14  Parms: SM      M1      
 Compute Stats, Diag. #    217  SIheff    vol(   0 ): 3.580E+14  Parms: SM      M1      
 Compute Stats, Diag. #    219  SIhsnow   vol(   0 ): 3.580E+14  Parms: SM      M1      
 Compute Stats, Diag. #     83  sIceLoad  vol(   0 ): 3.580E+14  Parms: SM      U1      
 Compute Stats, Diag. #    223  SIuice    vol(   0 ): 3.513E+14  Parms: UU      M1      
 Compute Stats, Diag. #    224  SIvice    vol(   0 ): 3.508E+14  Parms: VV      M1      
 Compute Stats, Diag. #    225  SItaux    vol(   0 ): 3.513E+14  Parms: UU      U1      
 Compute Stats, Diag. #    226  SItauy    vol(   0 ): 3.508E+14  Parms: VV      U1      
 cg2d: Sum(rhs),rhsMax =  -5.94632543779233E+01  2.99904275215009E-01
 Compute Stats, Diag. #    214  SIarea    vol(   0 ): 3.580E+14  Parms: SM      M1      
 Compute Stats, Diag. #    217  SIheff    vol(   0 ): 3.580E+14  Parms: SM      M1      
 Compute Stats, Diag. #    219  SIhsnow   vol(   0 ): 3.580E+14  Parms: SM      M1      
 Compute Stats, Diag. #     83  sIceLoad  vol(   0 ): 3.580E+14  Parms: SM      U1      
 Compute Stats, Diag. #    223  SIuice    vol(   0 ): 3.513E+14  Parms: UU      M1      
 Compute Stats, Diag. #    224  SIvice    vol(   0 ): 3.508E+14  Parms: VV      M1      
 Compute Stats, Diag. #    225  SItaux    vol(   0 ): 3.513E+14  Parms: UU      U1      
 Compute Stats, Diag. #    226  SItauy    vol(   0 ): 3.508E+14  Parms: VV      U1      
 cg2d: Sum(rhs),rhsMax =  -5.95170793407283E+01  2.99916901174645E-01
 Compute Stats, Diag. #    214  SIarea    vol(   0 ): 3.580E+14  Parms: SM      M1      
 Compute Stats, Diag. #    217  SIheff    vol(   0 ): 3.580E+14  Parms: SM      M1      
 Compute Stats, Diag. #    219  SIhsnow   vol(   0 ): 3.580E+14  Parms: SM      M1      
 Compute Stats, Diag. #     83  sIceLoad  vol(   0 ): 3.580E+14  Parms: SM      U1      
 Compute Stats, Diag. #    223  SIuice    vol(   0 ): 3.513E+14  Parms: UU      M1      
 Compute Stats, Diag. #    224  SIvice    vol(   0 ): 3.508E+14  Parms: VV      M1      
 Compute Stats, Diag. #    225  SItaux    vol(   0 ): 3.513E+14  Parms: UU      U1      
 Compute Stats, Diag. #    226  SItauy    vol(   0 ): 3.508E+14  Parms: VV      U1      
 cg2d: Sum(rhs),rhsMax =  -5.95685536408097E+01  2.99929153298885E-01
 Computing Diagnostic #     86  oceQnet      Counter:       4   Parms: SM      U1      
 Computing Diagnostic #     87  oceQsw       Counter:       4   Parms: SM      U1      
 Computing Diagnostic #     84  oceFWflx     Counter:       4   Parms: SM      U1      
 Computing Diagnostic #     85  oceSflux     Counter:       4   Parms: SM      U1      
 Computing Diagnostic #     80  oceTAUX      Counter:       4   Parms: UU      U1      
           Vector  Mate for  oceTAUX      Diagnostic #     81  oceTAUY  exists 
 Computing Diagnostic #     81  oceTAUY      Counter:       4   Parms: VV      U1      
           Vector  Mate for  oceTAUY      Diagnostic #     80  oceTAUX  exists 
 Computing Diagnostic #     26  THETA        Counter:       4   Parms: SMR     MR      
 Computing Diagnostic #     27  SALT         Counter:       4   Parms: SMR     MR      
 Computing Diagnostic #     30  UVEL         Counter:       4   Parms: UUR     MR      
           Vector  Mate for  UVEL         Diagnostic #     31  VVEL     exists 
 Computing Diagnostic #     31  VVEL         Counter:       4   Parms: VVR     MR      
           Vector  Mate for  VVEL         Diagnostic #     30  UVEL     exists 
 Computing Diagnostic #    214  SIarea       Counter:       4   Parms: SM      M1      
 Computing Diagnostic #    217  SIheff       Counter:       4   Parms: SM      M1      
 Computing Diagnostic #    219  SIhsnow      Counter:       4   Parms: SM      M1      
 Computing Diagnostic #     83  sIceLoad     Counter:       4   Parms: SM      U1      
 Computing Diagnostic #    223  SIuice       Counter:       4   Parms: UU      M1      
           Vector  Mate for  SIuice       Diagnostic #    224  SIvice   exists 
 Computing Diagnostic #    224  SIvice       Counter:       4   Parms: VV      M1      
           Vector  Mate for  SIvice       Diagnostic #    223  SIuice   exists 
 Computing Diagnostic #    225  SItaux       Counter:       4   Parms: UU      U1      
           Vector  Mate for  SItaux       Diagnostic #    226  SItauy   exists 
 Computing Diagnostic #    226  SItauy       Counter:       4   Parms: VV      U1      
           Vector  Mate for  SItauy       Diagnostic #    225  SItaux   exists 
 Computing Diagnostic #    285  SIareaN      Counter:       4   Parms: SM      MX      
 Computing Diagnostic #    284  SIheffN      Counter:       4   Parms: SM      MX      
 Computing Diagnostic #    286  SIhsnowN     Counter:       4   Parms: SM      MX      
 Compute Stats, Diag. #    214  SIarea    vol(   0 ): 3.580E+14  Parms: SM      M1      
 Compute Stats, Diag. #    217  SIheff    vol(   0 ): 3.580E+14  Parms: SM      M1      
 Compute Stats, Diag. #    219  SIhsnow   vol(   0 ): 3.580E+14  Parms: SM      M1      
 Compute Stats, Diag. #     83  sIceLoad  vol(   0 ): 3.580E+14  Parms: SM      U1      
 Compute Stats, Diag. #    223  SIuice    vol(   0 ): 3.513E+14  Parms: UU      M1      
 Compute Stats, Diag. #    224  SIvice    vol(   0 ): 3.508E+14  Parms: VV      M1      
 Compute Stats, Diag. #    225  SItaux    vol(   0 ): 3.513E+14  Parms: UU      U1      
 Compute Stats, Diag. #    226  SItauy    vol(   0 ): 3.508E+14  Parms: VV      U1      
 cg2d: Sum(rhs),rhsMax =  -5.96175066830895E+01  2.99939860081814E-01
 Compute Stats, Diag. #    214  SIarea    vol(   0 ): 3.580E+14  Parms: SM      M1      
 Compute Stats, Diag. #    217  SIheff    vol(   0 ): 3.580E+14  Parms: SM      M1      
 Compute Stats, Diag. #    219  SIhsnow   vol(   0 ): 3.580E+14  Parms: SM      M1      
 Compute Stats, Diag. #     83  sIceLoad  vol(   0 ): 3.580E+14  Parms: SM      U1      
 Compute Stats, Diag. #    223  SIuice    vol(   0 ): 3.513E+14  Parms: UU      M1      
 Compute Stats, Diag. #    224  SIvice    vol(   0 ): 3.508E+14  Parms: VV      M1      
 Compute Stats, Diag. #    225  SItaux    vol(   0 ): 3.513E+14  Parms: UU      U1      
 Compute Stats, Diag. #    226  SItauy    vol(   0 ): 3.508E+14  Parms: VV      U1      
 cg2d: Sum(rhs),rhsMax =  -5.96670601141755E+01  2.99948378628491E-01
 Compute Stats, Diag. #    214  SIarea    vol(   0 ): 3.580E+14  Parms: SM      M1      
 Compute Stats, Diag. #    217  SIheff    vol(   0 ): 3.580E+14  Parms: SM      M1      
 Compute Stats, Diag. #    219  SIhsnow   vol(   0 ): 3.580E+14  Parms: SM      M1      
 Compute Stats, Diag. #     83  sIceLoad  vol(   0 ): 3.580E+14  Parms: SM      U1      
 Compute Stats, Diag. #    223  SIuice    vol(   0 ): 3.513E+14  Parms: UU      M1      
 Compute Stats, Diag. #    224  SIvice    vol(   0 ): 3.508E+14  Parms: VV      M1      
 Compute Stats, Diag. #    225  SItaux    vol(   0 ): 3.513E+14  Parms: UU      U1      
 Compute Stats, Diag. #    226  SItauy    vol(   0 ): 3.508E+14  Parms: VV      U1      
 cg2d: Sum(rhs),rhsMax =  -5.97167384397182E+01  2.99954876409974E-01
 Compute Stats, Diag. #    214  SIarea    vol(   0 ): 3.580E+14  Parms: SM      M1      
 Compute Stats, Diag. #    217  SIheff    vol(   0 ): 3.580E+14  Parms: SM      M1      
 Compute Stats, Diag. #    219  SIhsnow   vol(   0 ): 3.580E+14  Parms: SM      M1      
 Compute Stats, Diag. #     83  sIceLoad  vol(   0 ): 3.580E+14  Parms: SM      U1      
 Compute Stats, Diag. #    223  SIuice    vol(   0 ): 3.513E+14  Parms: UU      M1      
 Compute Stats, Diag. #    224  SIvice    vol(   0 ): 3.508E+14  Parms: VV      M1      
 Compute Stats, Diag. #    225  SItaux    vol(   0 ): 3.513E+14  Parms: UU      U1      
 Compute Stats, Diag. #    226  SItauy    vol(   0 ): 3.508E+14  Parms: VV      U1      
 cg2d: Sum(rhs),rhsMax =  -5.97693040247355E+01  2.99959260438669E-01
(PID.TID 0000.0001)      cg2d_init_res =   3.96338774346242E-02
(PID.TID 0000.0001)      cg2d_iters(min,last) =      -1      24
(PID.TID 0000.0001)      cg2d_last_res =   2.53912786291364E-05
(PID.TID 0000.0001) // =======================================================
(PID.TID 0000.0001) // Begin MONITOR dynamic field statistics
(PID.TID 0000.0001) // =======================================================
(PID.TID 0000.0001) %MON time_tsnumber                =                  1288
(PID.TID 0000.0001) %MON time_secondsf                =   1.1592000000000E+06
(PID.TID 0000.0001) %MON dynstat_eta_max              =   1.0187012835426E+00
(PID.TID 0000.0001) %MON dynstat_eta_min              =  -1.8675593369498E+00
(PID.TID 0000.0001) %MON dynstat_eta_mean             =   1.8906939767936E-03
(PID.TID 0000.0001) %MON dynstat_eta_sd               =   6.2709775301750E-01
(PID.TID 0000.0001) %MON dynstat_eta_del2             =   5.0940398028346E-05
(PID.TID 0000.0001) %MON dynstat_uvel_max             =   6.4004277027729E-01
(PID.TID 0000.0001) %MON dynstat_uvel_min             =  -9.5133039933591E-01
(PID.TID 0000.0001) %MON dynstat_uvel_mean            =   1.3903737908121E-03
(PID.TID 0000.0001) %MON dynstat_uvel_sd              =   1.8040817434449E-02
(PID.TID 0000.0001) %MON dynstat_uvel_del2            =   7.2913209982350E-06
(PID.TID 0000.0001) %MON dynstat_vvel_max             =   6.4936472790405E-01
(PID.TID 0000.0001) %MON dynstat_vvel_min             =  -1.1011018839400E+00
(PID.TID 0000.0001) %MON dynstat_vvel_mean            =   1.1245590500873E-03
(PID.TID 0000.0001) %MON dynstat_vvel_sd              =   1.9626307552602E-02
(PID.TID 0000.0001) %MON dynstat_vvel_del2            =   7.5232160806906E-06
(PID.TID 0000.0001) %MON dynstat_wvel_max             =   3.0114683723013E-04
(PID.TID 0000.0001) %MON dynstat_wvel_min             =  -7.6953215787035E-04
(PID.TID 0000.0001) %MON dynstat_wvel_mean            =   1.0296799653423E-09
(PID.TID 0000.0001) %MON dynstat_wvel_sd              =   1.6582936773584E-05
(PID.TID 0000.0001) %MON dynstat_wvel_del2            =   1.5143009830956E-08
(PID.TID 0000.0001) %MON dynstat_theta_max            =   3.1346788008881E+01
(PID.TID 0000.0001) %MON dynstat_theta_min            =  -2.0394383648491E+00
(PID.TID 0000.0001) %MON dynstat_theta_mean           =   3.5900116223944E+00
(PID.TID 0000.0001) %MON dynstat_theta_sd             =   4.4369041801935E+00
(PID.TID 0000.0001) %MON dynstat_theta_del2           =   8.9150379514857E-05
(PID.TID 0000.0001) %MON dynstat_salt_max             =   4.0711554287399E+01
(PID.TID 0000.0001) %MON dynstat_salt_min             =   6.6992260075205E+00
(PID.TID 0000.0001) %MON dynstat_salt_mean            =   3.4725554680129E+01
(PID.TID 0000.0001) %MON dynstat_salt_sd              =   3.7717102550144E-01
(PID.TID 0000.0001) %MON dynstat_salt_del2            =   3.7051307792308E-05
(PID.TID 0000.0001) %MON dynstat_sst_max              =   3.1346788008881E+01
(PID.TID 0000.0001) %MON dynstat_sst_min              =  -1.8055260629950E+00
(PID.TID 0000.0001) %MON dynstat_sst_mean             =   1.8437685016839E+01
(PID.TID 0000.0001) %MON dynstat_sst_sd               =   1.0321074028279E+01
(PID.TID 0000.0001) %MON dynstat_sst_del2             =   7.9078753798926E-04
(PID.TID 0000.0001) %MON dynstat_sss_max              =   3.9098234024923E+01
(PID.TID 0000.0001) %MON dynstat_sss_min              =   6.6992260075205E+00
(PID.TID 0000.0001) %MON dynstat_sss_mean             =   3.4702175727684E+01
(PID.TID 0000.0001) %MON dynstat_sss_sd               =   1.1895326738512E+00
(PID.TID 0000.0001) %MON dynstat_sss_del2             =   1.1082233621167E-03
(PID.TID 0000.0001) %MON forcing_qnet_max             =   7.3476257324219E+02
(PID.TID 0000.0001) %MON forcing_qnet_min             =  -7.5679712350296E+02
(PID.TID 0000.0001) %MON forcing_qnet_mean            =   4.2646051843407E+01
(PID.TID 0000.0001) %MON forcing_qnet_sd              =   1.7666610640471E+02
(PID.TID 0000.0001) %MON forcing_qnet_del2            =   3.0555538120756E-01
(PID.TID 0000.0001) %MON forcing_qsw_max              =   0.0000000000000E+00
(PID.TID 0000.0001) %MON forcing_qsw_min              =  -1.0359819410229E+02
(PID.TID 0000.0001) %MON forcing_qsw_mean             =  -1.4293495945525E+01
(PID.TID 0000.0001) %MON forcing_qsw_sd               =   2.6253470388243E+01
(PID.TID 0000.0001) %MON forcing_qsw_del2             =   1.8857066951917E-02
(PID.TID 0000.0001) %MON forcing_empmr_max            =   6.1157927848399E-04
(PID.TID 0000.0001) %MON forcing_empmr_min            =  -4.7492790967226E-02
(PID.TID 0000.0001) %MON forcing_empmr_mean           =  -1.9011544889921E-06
(PID.TID 0000.0001) %MON forcing_empmr_sd             =   2.5699994034479E-04
(PID.TID 0000.0001) %MON forcing_empmr_del2           =   3.2531584303530E-06
(PID.TID 0000.0001) %MON forcing_fu_max               =   1.2358835339546E+00
(PID.TID 0000.0001) %MON forcing_fu_min               =  -1.4068812131882E+00
(PID.TID 0000.0001) %MON forcing_fu_mean              =   4.1369531530640E-03
(PID.TID 0000.0001) %MON forcing_fu_sd                =   1.2756073752795E-01
(PID.TID 0000.0001) %MON forcing_fu_del2              =   1.7763568375440E-04
(PID.TID 0000.0001) %MON forcing_fv_max               =   1.6289216876030E+00
(PID.TID 0000.0001) %MON forcing_fv_min               =  -9.0467840433120E-01
(PID.TID 0000.0001) %MON forcing_fv_mean              =  -6.5003091332545E-03
(PID.TID 0000.0001) %MON forcing_fv_sd                =   1.3201033734780E-01
(PID.TID 0000.0001) %MON forcing_fv_del2              =   1.9698130865367E-04
(PID.TID 0000.0001) %MON trAdv_CFL_u_max              =   1.3791016090221E-02
(PID.TID 0000.0001) %MON trAdv_CFL_v_max              =   1.3290401086223E-02
(PID.TID 0000.0001) %MON trAdv_CFL_w_max              =   2.0472808394946E-02
(PID.TID 0000.0001) %MON advcfl_uvel_max              =   1.2073738859061E-02
(PID.TID 0000.0001) %MON advcfl_vvel_max              =   1.2699733923354E-02
(PID.TID 0000.0001) %MON advcfl_wvel_max              =   2.2683607721784E-02
(PID.TID 0000.0001) %MON advcfl_W_hf_max              =   2.3791720003220E-02
(PID.TID 0000.0001) %MON pe_b_mean                    =   5.1728810885926E-04
(PID.TID 0000.0001) %MON ke_max                       =   6.7379878023406E-01
(PID.TID 0000.0001) %MON ke_mean                      =   3.4422117379677E-04
(PID.TID 0000.0001) %MON ke_vol                       =   1.3349985532386E+18
(PID.TID 0000.0001) %MON vort_r_min                   =  -1.3338464314030E-05
(PID.TID 0000.0001) %MON vort_r_max                   =   1.5892555978625E-05
(PID.TID 0000.0001) %MON vort_a_mean                  =  -1.9727864647440E-05
(PID.TID 0000.0001) %MON vort_a_sd                    =   7.4543004316416E-05
(PID.TID 0000.0001) %MON vort_p_mean                  =  -2.1760523277861E-05
(PID.TID 0000.0001) %MON vort_p_sd                    =   9.7246662368181E-05
(PID.TID 0000.0001) %MON surfExpan_theta_mean         =   1.4623863948788E-07
(PID.TID 0000.0001) %MON surfExpan_salt_mean          =   4.0195450114397E-08
(PID.TID 0000.0001) // =======================================================
(PID.TID 0000.0001) // End MONITOR dynamic field statistics
(PID.TID 0000.0001) // =======================================================
(PID.TID 0000.0001) // =======================================================
(PID.TID 0000.0001) // Begin MONITOR SEAICE statistics
(PID.TID 0000.0001) // =======================================================
(PID.TID 0000.0001) %MON seaice_tsnumber              =                  1288
(PID.TID 0000.0001) %MON seaice_time_sec              =   1.1592000000000E+06
(PID.TID 0000.0001) %MON seaice_uice_max              =   4.0000000000000E-01
(PID.TID 0000.0001) %MON seaice_uice_min              =  -4.0000000000000E-01
(PID.TID 0000.0001) %MON seaice_uice_mean             =  -8.3054598624025E-03
(PID.TID 0000.0001) %MON seaice_uice_sd               =   1.9802383574176E-01
(PID.TID 0000.0001) %MON seaice_uice_del2             =   2.2931571122150E-04
(PID.TID 0000.0001) %MON seaice_vice_max              =   4.0000000000000E-01
(PID.TID 0000.0001) %MON seaice_vice_min              =  -4.0000000000000E-01
(PID.TID 0000.0001) %MON seaice_vice_mean             =  -2.1960776359499E-02
(PID.TID 0000.0001) %MON seaice_vice_sd               =   2.1302038025672E-01
(PID.TID 0000.0001) %MON seaice_vice_del2             =   2.3932563818061E-04
(PID.TID 0000.0001) %MON seaice_area_max              =   9.9999999813735E-01
(PID.TID 0000.0001) %MON seaice_area_min              =   0.0000000000000E+00
(PID.TID 0000.0001) %MON seaice_area_mean             =   6.4080650298807E-02
(PID.TID 0000.0001) %MON seaice_area_sd               =   2.2669346705563E-01
(PID.TID 0000.0001) %MON seaice_area_del2             =   3.6576777503031E-04
(PID.TID 0000.0001) %MON seaice_heff_max              =   2.4867425273289E+01
(PID.TID 0000.0001) %MON seaice_heff_min              =   0.0000000000000E+00
(PID.TID 0000.0001) %MON seaice_heff_mean             =   2.1100753128474E-01
(PID.TID 0000.0001) %MON seaice_heff_sd               =   1.0652160494828E+00
(PID.TID 0000.0001) %MON seaice_heff_del2             =   3.8012947588998E-03
(PID.TID 0000.0001) %MON seaice_hsnow_max             =   8.2136825700291E+00
(PID.TID 0000.0001) %MON seaice_hsnow_min             =   0.0000000000000E+00
(PID.TID 0000.0001) %MON seaice_hsnow_mean            =   2.3844193743792E-02
(PID.TID 0000.0001) %MON seaice_hsnow_sd              =   1.5564304310284E-01
(PID.TID 0000.0001) %MON seaice_hsnow_del2            =   1.2319317368519E-03
(PID.TID 0000.0001) // =======================================================
(PID.TID 0000.0001) // End MONITOR SEAICE statistics
(PID.TID 0000.0001) // =======================================================
 Computing Diagnostic #     86  oceQnet      Counter:       4   Parms: SM      U1      
 Computing Diagnostic #     87  oceQsw       Counter:       4   Parms: SM      U1      
 Computing Diagnostic #     84  oceFWflx     Counter:       4   Parms: SM      U1      
 Computing Diagnostic #     85  oceSflux     Counter:       4   Parms: SM      U1      
 Computing Diagnostic #     80  oceTAUX      Counter:       4   Parms: UU      U1      
           Vector  Mate for  oceTAUX      Diagnostic #     81  oceTAUY  exists 
 Computing Diagnostic #     81  oceTAUY      Counter:       4   Parms: VV      U1      
           Vector  Mate for  oceTAUY      Diagnostic #     80  oceTAUX  exists 
 Computing Diagnostic #     26  THETA        Counter:       4   Parms: SMR     MR      
 Computing Diagnostic #     27  SALT         Counter:       4   Parms: SMR     MR      
 Computing Diagnostic #     30  UVEL         Counter:       4   Parms: UUR     MR      
           Vector  Mate for  UVEL         Diagnostic #     31  VVEL     exists 
 Computing Diagnostic #     31  VVEL         Counter:       4   Parms: VVR     MR      
           Vector  Mate for  VVEL         Diagnostic #     30  UVEL     exists 
 Computing Diagnostic #    214  SIarea       Counter:       4   Parms: SM      M1      
 Computing Diagnostic #    217  SIheff       Counter:       4   Parms: SM      M1      
 Computing Diagnostic #    219  SIhsnow      Counter:       4   Parms: SM      M1      
 Computing Diagnostic #     83  sIceLoad     Counter:       4   Parms: SM      U1      
 Computing Diagnostic #    223  SIuice       Counter:       4   Parms: UU      M1      
           Vector  Mate for  SIuice       Diagnostic #    224  SIvice   exists 
 Computing Diagnostic #    224  SIvice       Counter:       4   Parms: VV      M1      
           Vector  Mate for  SIvice       Diagnostic #    223  SIuice   exists 
 Computing Diagnostic #    225  SItaux       Counter:       4   Parms: UU      U1      
           Vector  Mate for  SItaux       Diagnostic #    226  SItauy   exists 
 Computing Diagnostic #    226  SItauy       Counter:       4   Parms: VV      U1      
           Vector  Mate for  SItauy       Diagnostic #    225  SItaux   exists 
 Computing Diagnostic #    285  SIareaN      Counter:       4   Parms: SM      MX      
 Computing Diagnostic #    284  SIheffN      Counter:       4   Parms: SM      MX      
 Computing Diagnostic #    286  SIhsnowN     Counter:       4   Parms: SM      MX      
 Compute Stats, Diag. #    214  SIarea    vol(   0 ): 3.580E+14  Parms: SM      M1      
 Compute Stats, Diag. #    217  SIheff    vol(   0 ): 3.580E+14  Parms: SM      M1      
 Compute Stats, Diag. #    219  SIhsnow   vol(   0 ): 3.580E+14  Parms: SM      M1      
 Compute Stats, Diag. #     83  sIceLoad  vol(   0 ): 3.580E+14  Parms: SM      U1      
 Compute Stats, Diag. #    223  SIuice    vol(   0 ): 3.513E+14  Parms: UU      M1      
 Compute Stats, Diag. #    224  SIvice    vol(   0 ): 3.508E+14  Parms: VV      M1      
 Compute Stats, Diag. #    225  SItaux    vol(   0 ): 3.513E+14  Parms: UU      U1      
 Compute Stats, Diag. #    226  SItauy    vol(   0 ): 3.508E+14  Parms: VV      U1      
 cg2d: Sum(rhs),rhsMax =  -5.98192496647428E+01  2.99961623316087E-01
 Compute Stats, Diag. #    214  SIarea    vol(   0 ): 3.580E+14  Parms: SM      M1      
 Compute Stats, Diag. #    217  SIheff    vol(   0 ): 3.580E+14  Parms: SM      M1      
 Compute Stats, Diag. #    219  SIhsnow   vol(   0 ): 3.580E+14  Parms: SM      M1      
 Compute Stats, Diag. #     83  sIceLoad  vol(   0 ): 3.580E+14  Parms: SM      U1      
 Compute Stats, Diag. #    223  SIuice    vol(   0 ): 3.513E+14  Parms: UU      M1      
 Compute Stats, Diag. #    224  SIvice    vol(   0 ): 3.508E+14  Parms: VV      M1      
 Compute Stats, Diag. #    225  SItaux    vol(   0 ): 3.513E+14  Parms: UU      U1      
 Compute Stats, Diag. #    226  SItauy    vol(   0 ): 3.508E+14  Parms: VV      U1      
 cg2d: Sum(rhs),rhsMax =  -5.98679871512487E+01  2.99961578581328E-01
 Compute Stats, Diag. #    214  SIarea    vol(   0 ): 3.580E+14  Parms: SM      M1      
 Compute Stats, Diag. #    217  SIheff    vol(   0 ): 3.580E+14  Parms: SM      M1      
 Compute Stats, Diag. #    219  SIhsnow   vol(   0 ): 3.580E+14  Parms: SM      M1      
 Compute Stats, Diag. #     83  sIceLoad  vol(   0 ): 3.580E+14  Parms: SM      U1      
 Compute Stats, Diag. #    223  SIuice    vol(   0 ): 3.513E+14  Parms: UU      M1      
 Compute Stats, Diag. #    224  SIvice    vol(   0 ): 3.508E+14  Parms: VV      M1      
 Compute Stats, Diag. #    225  SItaux    vol(   0 ): 3.513E+14  Parms: UU      U1      
 Compute Stats, Diag. #    226  SItauy    vol(   0 ): 3.508E+14  Parms: VV      U1      
 cg2d: Sum(rhs),rhsMax =  -5.99171260312232E+01  2.99958471655553E-01
 Compute Stats, Diag. #    214  SIarea    vol(   0 ): 3.580E+14  Parms: SM      M1      
 Compute Stats, Diag. #    217  SIheff    vol(   0 ): 3.580E+14  Parms: SM      M1      
 Compute Stats, Diag. #    219  SIhsnow   vol(   0 ): 3.580E+14  Parms: SM      M1      
 Compute Stats, Diag. #     83  sIceLoad  vol(   0 ): 3.580E+14  Parms: SM      U1      
 Compute Stats, Diag. #    223  SIuice    vol(   0 ): 3.513E+14  Parms: UU      M1      
 Compute Stats, Diag. #    224  SIvice    vol(   0 ): 3.508E+14  Parms: VV      M1      
 Compute Stats, Diag. #    225  SItaux    vol(   0 ): 3.513E+14  Parms: UU      U1      
 Compute Stats, Diag. #    226  SItauy    vol(   0 ): 3.508E+14  Parms: VV      U1      
 cg2d: Sum(rhs),rhsMax =  -5.99708453026805E+01  2.99952331807175E-01
 Computing Diagnostic #     86  oceQnet      Counter:       4   Parms: SM      U1      
 Computing Diagnostic #     87  oceQsw       Counter:       4   Parms: SM      U1      
 Computing Diagnostic #     84  oceFWflx     Counter:       4   Parms: SM      U1      
 Computing Diagnostic #     85  oceSflux     Counter:       4   Parms: SM      U1      
 Computing Diagnostic #     80  oceTAUX      Counter:       4   Parms: UU      U1      
           Vector  Mate for  oceTAUX      Diagnostic #     81  oceTAUY  exists 
 Computing Diagnostic #     81  oceTAUY      Counter:       4   Parms: VV      U1      
           Vector  Mate for  oceTAUY      Diagnostic #     80  oceTAUX  exists 
 Computing Diagnostic #     26  THETA        Counter:       4   Parms: SMR     MR      
 Computing Diagnostic #     27  SALT         Counter:       4   Parms: SMR     MR      
 Computing Diagnostic #     30  UVEL         Counter:       4   Parms: UUR     MR      
           Vector  Mate for  UVEL         Diagnostic #     31  VVEL     exists 
 Computing Diagnostic #     31  VVEL         Counter:       4   Parms: VVR     MR      
           Vector  Mate for  VVEL         Diagnostic #     30  UVEL     exists 
 Computing Diagnostic #    214  SIarea       Counter:       4   Parms: SM      M1      
 Computing Diagnostic #    217  SIheff       Counter:       4   Parms: SM      M1      
 Computing Diagnostic #    219  SIhsnow      Counter:       4   Parms: SM      M1      
 Computing Diagnostic #     83  sIceLoad     Counter:       4   Parms: SM      U1      
 Computing Diagnostic #    223  SIuice       Counter:       4   Parms: UU      M1      
           Vector  Mate for  SIuice       Diagnostic #    224  SIvice   exists 
 Computing Diagnostic #    224  SIvice       Counter:       4   Parms: VV      M1      
           Vector  Mate for  SIvice       Diagnostic #    223  SIuice   exists 
 Computing Diagnostic #    225  SItaux       Counter:       4   Parms: UU      U1      
           Vector  Mate for  SItaux       Diagnostic #    226  SItauy   exists 
 Computing Diagnostic #    226  SItauy       Counter:       4   Parms: VV      U1      
           Vector  Mate for  SItauy       Diagnostic #    225  SItaux   exists 
 Computing Diagnostic #    285  SIareaN      Counter:       4   Parms: SM      MX      
 Computing Diagnostic #    284  SIheffN      Counter:       4   Parms: SM      MX      
 Computing Diagnostic #    286  SIhsnowN     Counter:       4   Parms: SM      MX      
 Compute Stats, Diag. #    214  SIarea    vol(   0 ): 3.580E+14  Parms: SM      M1      
 Compute Stats, Diag. #    217  SIheff    vol(   0 ): 3.580E+14  Parms: SM      M1      
 Compute Stats, Diag. #    219  SIhsnow   vol(   0 ): 3.580E+14  Parms: SM      M1      
 Compute Stats, Diag. #     83  sIceLoad  vol(   0 ): 3.580E+14  Parms: SM      U1      
 Compute Stats, Diag. #    223  SIuice    vol(   0 ): 3.513E+14  Parms: UU      M1      
 Compute Stats, Diag. #    224  SIvice    vol(   0 ): 3.508E+14  Parms: VV      M1      
 Compute Stats, Diag. #    225  SItaux    vol(   0 ): 3.513E+14  Parms: UU      U1      
 Compute Stats, Diag. #    226  SItauy    vol(   0 ): 3.508E+14  Parms: VV      U1      
 cg2d: Sum(rhs),rhsMax =  -6.00219573409994E+01  2.99939823262281E-01
 Compute Stats, Diag. #    214  SIarea    vol(   0 ): 3.580E+14  Parms: SM      M1      
 Compute Stats, Diag. #    217  SIheff    vol(   0 ): 3.580E+14  Parms: SM      M1      
 Compute Stats, Diag. #    219  SIhsnow   vol(   0 ): 3.580E+14  Parms: SM      M1      
 Compute Stats, Diag. #     83  sIceLoad  vol(   0 ): 3.580E+14  Parms: SM      U1      
 Compute Stats, Diag. #    223  SIuice    vol(   0 ): 3.513E+14  Parms: UU      M1      
 Compute Stats, Diag. #    224  SIvice    vol(   0 ): 3.508E+14  Parms: VV      M1      
 Compute Stats, Diag. #    225  SItaux    vol(   0 ): 3.513E+14  Parms: UU      U1      
 Compute Stats, Diag. #    226  SItauy    vol(   0 ): 3.508E+14  Parms: VV      U1      
 cg2d: Sum(rhs),rhsMax =  -6.00661723218305E+01  2.99922282140460E-01
 Compute Stats, Diag. #    214  SIarea    vol(   0 ): 3.580E+14  Parms: SM      M1      
 Compute Stats, Diag. #    217  SIheff    vol(   0 ): 3.580E+14  Parms: SM      M1      
 Compute Stats, Diag. #    219  SIhsnow   vol(   0 ): 3.580E+14  Parms: SM      M1      
 Compute Stats, Diag. #     83  sIceLoad  vol(   0 ): 3.580E+14  Parms: SM      U1      
 Compute Stats, Diag. #    223  SIuice    vol(   0 ): 3.513E+14  Parms: UU      M1      
 Compute Stats, Diag. #    224  SIvice    vol(   0 ): 3.508E+14  Parms: VV      M1      
 Compute Stats, Diag. #    225  SItaux    vol(   0 ): 3.513E+14  Parms: UU      U1      
 Compute Stats, Diag. #    226  SItauy    vol(   0 ): 3.508E+14  Parms: VV      U1      
 cg2d: Sum(rhs),rhsMax =  -6.01077209802974E+01  2.99902008595869E-01
 Compute Stats, Diag. #    214  SIarea    vol(   0 ): 3.580E+14  Parms: SM      M1      
 Compute Stats, Diag. #    217  SIheff    vol(   0 ): 3.580E+14  Parms: SM      M1      
 Compute Stats, Diag. #    219  SIhsnow   vol(   0 ): 3.580E+14  Parms: SM      M1      
 Compute Stats, Diag. #     83  sIceLoad  vol(   0 ): 3.580E+14  Parms: SM      U1      
 Compute Stats, Diag. #    223  SIuice    vol(   0 ): 3.513E+14  Parms: UU      M1      
 Compute Stats, Diag. #    224  SIvice    vol(   0 ): 3.508E+14  Parms: VV      M1      
 Compute Stats, Diag. #    225  SItaux    vol(   0 ): 3.513E+14  Parms: UU      U1      
 Compute Stats, Diag. #    226  SItauy    vol(   0 ): 3.508E+14  Parms: VV      U1      
 cg2d: Sum(rhs),rhsMax =  -6.01485690740236E+01  2.99878629865276E-01
(PID.TID 0000.0001)      cg2d_init_res =   4.03822618974843E-02
(PID.TID 0000.0001)      cg2d_iters(min,last) =      -1      24
(PID.TID 0000.0001)      cg2d_last_res =   2.37967421128803E-05
(PID.TID 0000.0001) // =======================================================
(PID.TID 0000.0001) // Begin MONITOR dynamic field statistics
(PID.TID 0000.0001) // =======================================================
(PID.TID 0000.0001) %MON time_tsnumber                =                  1296
(PID.TID 0000.0001) %MON time_secondsf                =   1.1664000000000E+06
(PID.TID 0000.0001) %MON dynstat_eta_max              =   1.0175377511742E+00
(PID.TID 0000.0001) %MON dynstat_eta_min              =  -1.8678758097961E+00
(PID.TID 0000.0001) %MON dynstat_eta_mean             =   1.9026913415950E-03
(PID.TID 0000.0001) %MON dynstat_eta_sd               =   6.2725267523071E-01
(PID.TID 0000.0001) %MON dynstat_eta_del2             =   5.0773125469731E-05
(PID.TID 0000.0001) %MON dynstat_uvel_max             =   6.3968417262135E-01
(PID.TID 0000.0001) %MON dynstat_uvel_min             =  -9.4889420883847E-01
(PID.TID 0000.0001) %MON dynstat_uvel_mean            =   1.3843976060767E-03
(PID.TID 0000.0001) %MON dynstat_uvel_sd              =   1.8039631533734E-02
(PID.TID 0000.0001) %MON dynstat_uvel_del2            =   7.3111290633403E-06
(PID.TID 0000.0001) %MON dynstat_vvel_max             =   6.5046982332447E-01
(PID.TID 0000.0001) %MON dynstat_vvel_min             =  -1.1011129983065E+00
(PID.TID 0000.0001) %MON dynstat_vvel_mean            =   1.1242308951742E-03
(PID.TID 0000.0001) %MON dynstat_vvel_sd              =   1.9627145316843E-02
(PID.TID 0000.0001) %MON dynstat_vvel_del2            =   7.5539897775864E-06
(PID.TID 0000.0001) %MON dynstat_wvel_max             =   2.9373098450878E-04
(PID.TID 0000.0001) %MON dynstat_wvel_min             =  -7.7060896526082E-04
(PID.TID 0000.0001) %MON dynstat_wvel_mean            =   6.3286958051784E-10
(PID.TID 0000.0001) %MON dynstat_wvel_sd              =   1.6506348592152E-05
(PID.TID 0000.0001) %MON dynstat_wvel_del2            =   1.5302603776555E-08
(PID.TID 0000.0001) %MON dynstat_theta_max            =   3.1327018993187E+01
(PID.TID 0000.0001) %MON dynstat_theta_min            =  -2.0394288602124E+00
(PID.TID 0000.0001) %MON dynstat_theta_mean           =   3.5899906778154E+00
(PID.TID 0000.0001) %MON dynstat_theta_sd             =   4.4368421237792E+00
(PID.TID 0000.0001) %MON dynstat_theta_del2           =   8.9139372625242E-05
(PID.TID 0000.0001) %MON dynstat_salt_max             =   4.0711554413661E+01
(PID.TID 0000.0001) %MON dynstat_salt_min             =   6.7734233876247E+00
(PID.TID 0000.0001) %MON dynstat_salt_mean            =   3.4725554590285E+01
(PID.TID 0000.0001) %MON dynstat_salt_sd              =   3.7717291257829E-01
(PID.TID 0000.0001) %MON dynstat_salt_del2            =   3.7124983065453E-05
(PID.TID 0000.0001) %MON dynstat_sst_max              =   3.1326465176486E+01
(PID.TID 0000.0001) %MON dynstat_sst_min              =  -1.8069003147038E+00
(PID.TID 0000.0001) %MON dynstat_sst_mean             =   1.8432061834519E+01
(PID.TID 0000.0001) %MON dynstat_sst_sd               =   1.0320856586403E+01
(PID.TID 0000.0001) %MON dynstat_sst_del2             =   7.9039472278262E-04
(PID.TID 0000.0001) %MON dynstat_sss_max              =   3.9098212118423E+01
(PID.TID 0000.0001) %MON dynstat_sss_min              =   6.7734233876247E+00
(PID.TID 0000.0001) %MON dynstat_sss_mean             =   3.4702155790603E+01
(PID.TID 0000.0001) %MON dynstat_sss_sd               =   1.1897486688797E+00
(PID.TID 0000.0001) %MON dynstat_sss_del2             =   1.1108107752596E-03
(PID.TID 0000.0001) %MON forcing_qnet_max             =   7.1391662597656E+02
(PID.TID 0000.0001) %MON forcing_qnet_min             =  -7.1785533708091E+02
(PID.TID 0000.0001) %MON forcing_qnet_mean            =   4.2738923271363E+01
(PID.TID 0000.0001) %MON forcing_qnet_sd              =   1.7067302141723E+02
(PID.TID 0000.0001) %MON forcing_qnet_del2            =   3.0576348030711E-01
(PID.TID 0000.0001) %MON forcing_qsw_max              =   0.0000000000000E+00
(PID.TID 0000.0001) %MON forcing_qsw_min              =  -1.0870066722479E+02
(PID.TID 0000.0001) %MON forcing_qsw_mean             =  -1.3517070740501E+01
(PID.TID 0000.0001) %MON forcing_qsw_sd               =   2.4545488145477E+01
(PID.TID 0000.0001) %MON forcing_qsw_del2             =   1.8371458209524E-02
(PID.TID 0000.0001) %MON forcing_empmr_max            =   8.9911569375545E-04
(PID.TID 0000.0001) %MON forcing_empmr_min            =  -4.5837622135878E-02
(PID.TID 0000.0001) %MON forcing_empmr_mean           =  -1.4773646433600E-06
(PID.TID 0000.0001) %MON forcing_empmr_sd             =   2.5398271321775E-04
(PID.TID 0000.0001) %MON forcing_empmr_del2           =   3.3465221152351E-06
(PID.TID 0000.0001) %MON forcing_fu_max               =   1.2419999241829E+00
(PID.TID 0000.0001) %MON forcing_fu_min               =  -1.4381813406944E+00
(PID.TID 0000.0001) %MON forcing_fu_mean              =   3.9995298674861E-03
(PID.TID 0000.0001) %MON forcing_fu_sd                =   1.2872115169660E-01
(PID.TID 0000.0001) %MON forcing_fu_del2              =   1.8616669796449E-04
(PID.TID 0000.0001) %MON forcing_fv_max               =   1.7222118377686E+00
(PID.TID 0000.0001) %MON forcing_fv_min               =  -9.4595882296562E-01
(PID.TID 0000.0001) %MON forcing_fv_mean              =  -6.7804564684644E-03
(PID.TID 0000.0001) %MON forcing_fv_sd                =   1.3217588788014E-01
(PID.TID 0000.0001) %MON forcing_fv_del2              =   1.9285774111835E-04
(PID.TID 0000.0001) %MON trAdv_CFL_u_max              =   1.3916675348755E-02
(PID.TID 0000.0001) %MON trAdv_CFL_v_max              =   1.2644925650507E-02
(PID.TID 0000.0001) %MON trAdv_CFL_w_max              =   2.0426006830274E-02
(PID.TID 0000.0001) %MON advcfl_uvel_max              =   1.2197311578280E-02
(PID.TID 0000.0001) %MON advcfl_vvel_max              =   1.2566015867409E-02
(PID.TID 0000.0001) %MON advcfl_wvel_max              =   2.2638965437588E-02
(PID.TID 0000.0001) %MON advcfl_W_hf_max              =   2.3744921936946E-02
(PID.TID 0000.0001) %MON pe_b_mean                    =   5.1754378453691E-04
(PID.TID 0000.0001) %MON ke_max                       =   6.7478367668577E-01
(PID.TID 0000.0001) %MON ke_mean                      =   3.4420803920423E-04
(PID.TID 0000.0001) %MON ke_vol                       =   1.3349985576666E+18
(PID.TID 0000.0001) %MON vort_r_min                   =  -1.3397104735287E-05
(PID.TID 0000.0001) %MON vort_r_max                   =   1.5973003586219E-05
(PID.TID 0000.0001) %MON vort_a_mean                  =  -1.9727864647440E-05
(PID.TID 0000.0001) %MON vort_a_sd                    =   7.4543003652380E-05
(PID.TID 0000.0001) %MON vort_p_mean                  =  -2.1760523235041E-05
(PID.TID 0000.0001) %MON vort_p_sd                    =   9.7246529720678E-05
(PID.TID 0000.0001) %MON surfExpan_theta_mean         =   1.4874894945048E-07
(PID.TID 0000.0001) %MON surfExpan_salt_mean          =   4.6458125399417E-08
(PID.TID 0000.0001) // =======================================================
(PID.TID 0000.0001) // End MONITOR dynamic field statistics
(PID.TID 0000.0001) // =======================================================
(PID.TID 0000.0001) // =======================================================
(PID.TID 0000.0001) // Begin MONITOR SEAICE statistics
(PID.TID 0000.0001) // =======================================================
(PID.TID 0000.0001) %MON seaice_tsnumber              =                  1296
(PID.TID 0000.0001) %MON seaice_time_sec              =   1.1664000000000E+06
(PID.TID 0000.0001) %MON seaice_uice_max              =   4.0000000000000E-01
(PID.TID 0000.0001) %MON seaice_uice_min              =  -4.0000000000000E-01
(PID.TID 0000.0001) %MON seaice_uice_mean             =  -8.3054598624025E-03
(PID.TID 0000.0001) %MON seaice_uice_sd               =   1.9802383574176E-01
(PID.TID 0000.0001) %MON seaice_uice_del2             =   2.2931571122150E-04
(PID.TID 0000.0001) %MON seaice_vice_max              =   4.0000000000000E-01
(PID.TID 0000.0001) %MON seaice_vice_min              =  -4.0000000000000E-01
(PID.TID 0000.0001) %MON seaice_vice_mean             =  -2.1960776359499E-02
(PID.TID 0000.0001) %MON seaice_vice_sd               =   2.1302038025672E-01
(PID.TID 0000.0001) %MON seaice_vice_del2             =   2.3932563818061E-04
(PID.TID 0000.0001) %MON seaice_area_max              =   1.0000000000000E+00
(PID.TID 0000.0001) %MON seaice_area_min              =   0.0000000000000E+00
(PID.TID 0000.0001) %MON seaice_area_mean             =   6.4057676408088E-02
(PID.TID 0000.0001) %MON seaice_area_sd               =   2.2665428339549E-01
(PID.TID 0000.0001) %MON seaice_area_del2             =   3.6542108319097E-04
(PID.TID 0000.0001) %MON seaice_heff_max              =   2.4866168187698E+01
(PID.TID 0000.0001) %MON seaice_heff_min              =   0.0000000000000E+00
(PID.TID 0000.0001) %MON seaice_heff_mean             =   2.1099015847203E-01
(PID.TID 0000.0001) %MON seaice_heff_sd               =   1.0652059267835E+00
(PID.TID 0000.0001) %MON seaice_heff_del2             =   3.8007342107143E-03
(PID.TID 0000.0001) %MON seaice_hsnow_max             =   8.2132637063914E+00
(PID.TID 0000.0001) %MON seaice_hsnow_min             =   0.0000000000000E+00
(PID.TID 0000.0001) %MON seaice_hsnow_mean            =   2.3849381203230E-02
(PID.TID 0000.0001) %MON seaice_hsnow_sd              =   1.5564730917067E-01
(PID.TID 0000.0001) %MON seaice_hsnow_del2            =   1.2318936472838E-03
(PID.TID 0000.0001) // =======================================================
(PID.TID 0000.0001) // End MONITOR SEAICE statistics
(PID.TID 0000.0001) // =======================================================
 Computing Diagnostic #     86  oceQnet      Counter:       4   Parms: SM      U1      
 Computing Diagnostic #     87  oceQsw       Counter:       4   Parms: SM      U1      
 Computing Diagnostic #     84  oceFWflx     Counter:       4   Parms: SM      U1      
 Computing Diagnostic #     85  oceSflux     Counter:       4   Parms: SM      U1      
 Computing Diagnostic #     80  oceTAUX      Counter:       4   Parms: UU      U1      
           Vector  Mate for  oceTAUX      Diagnostic #     81  oceTAUY  exists 
 Computing Diagnostic #     81  oceTAUY      Counter:       4   Parms: VV      U1      
           Vector  Mate for  oceTAUY      Diagnostic #     80  oceTAUX  exists 
 Computing Diagnostic #     26  THETA        Counter:       4   Parms: SMR     MR      
 Computing Diagnostic #     27  SALT         Counter:       4   Parms: SMR     MR      
 Computing Diagnostic #     30  UVEL         Counter:       4   Parms: UUR     MR      
           Vector  Mate for  UVEL         Diagnostic #     31  VVEL     exists 
 Computing Diagnostic #     31  VVEL         Counter:       4   Parms: VVR     MR      
           Vector  Mate for  VVEL         Diagnostic #     30  UVEL     exists 
 Computing Diagnostic #    214  SIarea       Counter:       4   Parms: SM      M1      
 Computing Diagnostic #    217  SIheff       Counter:       4   Parms: SM      M1      
 Computing Diagnostic #    219  SIhsnow      Counter:       4   Parms: SM      M1      
 Computing Diagnostic #     83  sIceLoad     Counter:       4   Parms: SM      U1      
 Computing Diagnostic #    223  SIuice       Counter:       4   Parms: UU      M1      
           Vector  Mate for  SIuice       Diagnostic #    224  SIvice   exists 
 Computing Diagnostic #    224  SIvice       Counter:       4   Parms: VV      M1      
           Vector  Mate for  SIvice       Diagnostic #    223  SIuice   exists 
 Computing Diagnostic #    225  SItaux       Counter:       4   Parms: UU      U1      
           Vector  Mate for  SItaux       Diagnostic #    226  SItauy   exists 
 Computing Diagnostic #    226  SItauy       Counter:       4   Parms: VV      U1      
           Vector  Mate for  SItauy       Diagnostic #    225  SItaux   exists 
 Computing Diagnostic #    285  SIareaN      Counter:       4   Parms: SM      MX      
 Computing Diagnostic #    284  SIheffN      Counter:       4   Parms: SM      MX      
 Computing Diagnostic #    286  SIhsnowN     Counter:       4   Parms: SM      MX      
 Compute Stats, Diag. #    214  SIarea    vol(   0 ): 3.580E+14  Parms: SM      M1      
 Compute Stats, Diag. #    217  SIheff    vol(   0 ): 3.580E+14  Parms: SM      M1      
 Compute Stats, Diag. #    219  SIhsnow   vol(   0 ): 3.580E+14  Parms: SM      M1      
 Compute Stats, Diag. #     83  sIceLoad  vol(   0 ): 3.580E+14  Parms: SM      U1      
 Compute Stats, Diag. #    223  SIuice    vol(   0 ): 3.513E+14  Parms: UU      M1      
 Compute Stats, Diag. #    224  SIvice    vol(   0 ): 3.508E+14  Parms: VV      M1      
 Compute Stats, Diag. #    225  SItaux    vol(   0 ): 3.513E+14  Parms: UU      U1      
 Compute Stats, Diag. #    226  SItauy    vol(   0 ): 3.508E+14  Parms: VV      U1      
 cg2d: Sum(rhs),rhsMax =  -6.01919825441110E+01  2.99852152464300E-01
 Compute Stats, Diag. #    214  SIarea    vol(   0 ): 3.580E+14  Parms: SM      M1      
 Compute Stats, Diag. #    217  SIheff    vol(   0 ): 3.580E+14  Parms: SM      M1      
 Compute Stats, Diag. #    219  SIhsnow   vol(   0 ): 3.580E+14  Parms: SM      M1      
 Compute Stats, Diag. #     83  sIceLoad  vol(   0 ): 3.580E+14  Parms: SM      U1      
 Compute Stats, Diag. #    223  SIuice    vol(   0 ): 3.513E+14  Parms: UU      M1      
 Compute Stats, Diag. #    224  SIvice    vol(   0 ): 3.508E+14  Parms: VV      M1      
 Compute Stats, Diag. #    225  SItaux    vol(   0 ): 3.513E+14  Parms: UU      U1      
 Compute Stats, Diag. #    226  SItauy    vol(   0 ): 3.508E+14  Parms: VV      U1      
 cg2d: Sum(rhs),rhsMax =  -6.02400855603501E+01  2.99822758744463E-01
 Compute Stats, Diag. #    214  SIarea    vol(   0 ): 3.580E+14  Parms: SM      M1      
 Compute Stats, Diag. #    217  SIheff    vol(   0 ): 3.580E+14  Parms: SM      M1      
 Compute Stats, Diag. #    219  SIhsnow   vol(   0 ): 3.580E+14  Parms: SM      M1      
 Compute Stats, Diag. #     83  sIceLoad  vol(   0 ): 3.580E+14  Parms: SM      U1      
 Compute Stats, Diag. #    223  SIuice    vol(   0 ): 3.513E+14  Parms: UU      M1      
 Compute Stats, Diag. #    224  SIvice    vol(   0 ): 3.508E+14  Parms: VV      M1      
 Compute Stats, Diag. #    225  SItaux    vol(   0 ): 3.513E+14  Parms: UU      U1      
 Compute Stats, Diag. #    226  SItauy    vol(   0 ): 3.508E+14  Parms: VV      U1      
 cg2d: Sum(rhs),rhsMax =  -6.02856703133448E+01  2.99790295367861E-01
 Compute Stats, Diag. #    214  SIarea    vol(   0 ): 3.580E+14  Parms: SM      M1      
 Compute Stats, Diag. #    217  SIheff    vol(   0 ): 3.580E+14  Parms: SM      M1      
 Compute Stats, Diag. #    219  SIhsnow   vol(   0 ): 3.580E+14  Parms: SM      M1      
 Compute Stats, Diag. #     83  sIceLoad  vol(   0 ): 3.580E+14  Parms: SM      U1      
 Compute Stats, Diag. #    223  SIuice    vol(   0 ): 3.513E+14  Parms: UU      M1      
 Compute Stats, Diag. #    224  SIvice    vol(   0 ): 3.508E+14  Parms: VV      M1      
 Compute Stats, Diag. #    225  SItaux    vol(   0 ): 3.513E+14  Parms: UU      U1      
 Compute Stats, Diag. #    226  SItauy    vol(   0 ): 3.508E+14  Parms: VV      U1      
 cg2d: Sum(rhs),rhsMax =  -6.03348397667636E+01  2.99755435074607E-01
 Computing Diagnostic #     86  oceQnet      Counter:       4   Parms: SM      U1      
 Computing Diagnostic #     87  oceQsw       Counter:       4   Parms: SM      U1      
 Computing Diagnostic #     84  oceFWflx     Counter:       4   Parms: SM      U1      
 Computing Diagnostic #     85  oceSflux     Counter:       4   Parms: SM      U1      
 Computing Diagnostic #     80  oceTAUX      Counter:       4   Parms: UU      U1      
           Vector  Mate for  oceTAUX      Diagnostic #     81  oceTAUY  exists 
 Computing Diagnostic #     81  oceTAUY      Counter:       4   Parms: VV      U1      
           Vector  Mate for  oceTAUY      Diagnostic #     80  oceTAUX  exists 
 Computing Diagnostic #     26  THETA        Counter:       4   Parms: SMR     MR      
 Computing Diagnostic #     27  SALT         Counter:       4   Parms: SMR     MR      
 Computing Diagnostic #     30  UVEL         Counter:       4   Parms: UUR     MR      
           Vector  Mate for  UVEL         Diagnostic #     31  VVEL     exists 
 Computing Diagnostic #     31  VVEL         Counter:       4   Parms: VVR     MR      
           Vector  Mate for  VVEL         Diagnostic #     30  UVEL     exists 
 Computing Diagnostic #    214  SIarea       Counter:       4   Parms: SM      M1      
 Computing Diagnostic #    217  SIheff       Counter:       4   Parms: SM      M1      
 Computing Diagnostic #    219  SIhsnow      Counter:       4   Parms: SM      M1      
 Computing Diagnostic #     83  sIceLoad     Counter:       4   Parms: SM      U1      
 Computing Diagnostic #    223  SIuice       Counter:       4   Parms: UU      M1      
           Vector  Mate for  SIuice       Diagnostic #    224  SIvice   exists 
 Computing Diagnostic #    224  SIvice       Counter:       4   Parms: VV      M1      
           Vector  Mate for  SIvice       Diagnostic #    223  SIuice   exists 
 Computing Diagnostic #    225  SItaux       Counter:       4   Parms: UU      U1      
           Vector  Mate for  SItaux       Diagnostic #    226  SItauy   exists 
 Computing Diagnostic #    226  SItauy       Counter:       4   Parms: VV      U1      
           Vector  Mate for  SItauy       Diagnostic #    225  SItaux   exists 
 Computing Diagnostic #    285  SIareaN      Counter:       4   Parms: SM      MX      
 Computing Diagnostic #    284  SIheffN      Counter:       4   Parms: SM      MX      
 Computing Diagnostic #    286  SIhsnowN     Counter:       4   Parms: SM      MX      
 Compute Stats, Diag. #    214  SIarea    vol(   0 ): 3.580E+14  Parms: SM      M1      
 Compute Stats, Diag. #    217  SIheff    vol(   0 ): 3.580E+14  Parms: SM      M1      
 Compute Stats, Diag. #    219  SIhsnow   vol(   0 ): 3.580E+14  Parms: SM      M1      
 Compute Stats, Diag. #     83  sIceLoad  vol(   0 ): 3.580E+14  Parms: SM      U1      
 Compute Stats, Diag. #    223  SIuice    vol(   0 ): 3.513E+14  Parms: UU      M1      
 Compute Stats, Diag. #    224  SIvice    vol(   0 ): 3.508E+14  Parms: VV      M1      
 Compute Stats, Diag. #    225  SItaux    vol(   0 ): 3.513E+14  Parms: UU      U1      
 Compute Stats, Diag. #    226  SItauy    vol(   0 ): 3.508E+14  Parms: VV      U1      
 cg2d: Sum(rhs),rhsMax =  -6.03852345281407E+01  2.99723339865787E-01
 Compute Stats, Diag. #    214  SIarea    vol(   0 ): 3.580E+14  Parms: SM      M1      
 Compute Stats, Diag. #    217  SIheff    vol(   0 ): 3.580E+14  Parms: SM      M1      
 Compute Stats, Diag. #    219  SIhsnow   vol(   0 ): 3.580E+14  Parms: SM      M1      
 Compute Stats, Diag. #     83  sIceLoad  vol(   0 ): 3.580E+14  Parms: SM      U1      
 Compute Stats, Diag. #    223  SIuice    vol(   0 ): 3.513E+14  Parms: UU      M1      
 Compute Stats, Diag. #    224  SIvice    vol(   0 ): 3.508E+14  Parms: VV      M1      
 Compute Stats, Diag. #    225  SItaux    vol(   0 ): 3.513E+14  Parms: UU      U1      
 Compute Stats, Diag. #    226  SItauy    vol(   0 ): 3.508E+14  Parms: VV      U1      
 cg2d: Sum(rhs),rhsMax =  -6.04447675698568E+01  2.99688641303223E-01
 Compute Stats, Diag. #    214  SIarea    vol(   0 ): 3.580E+14  Parms: SM      M1      
 Compute Stats, Diag. #    217  SIheff    vol(   0 ): 3.580E+14  Parms: SM      M1      
 Compute Stats, Diag. #    219  SIhsnow   vol(   0 ): 3.580E+14  Parms: SM      M1      
 Compute Stats, Diag. #     83  sIceLoad  vol(   0 ): 3.580E+14  Parms: SM      U1      
 Compute Stats, Diag. #    223  SIuice    vol(   0 ): 3.513E+14  Parms: UU      M1      
 Compute Stats, Diag. #    224  SIvice    vol(   0 ): 3.508E+14  Parms: VV      M1      
 Compute Stats, Diag. #    225  SItaux    vol(   0 ): 3.513E+14  Parms: UU      U1      
 Compute Stats, Diag. #    226  SItauy    vol(   0 ): 3.508E+14  Parms: VV      U1      
 cg2d: Sum(rhs),rhsMax =  -6.05036634822836E+01  2.99651676195791E-01
 Compute Stats, Diag. #    214  SIarea    vol(   0 ): 3.580E+14  Parms: SM      M1      
 Compute Stats, Diag. #    217  SIheff    vol(   0 ): 3.580E+14  Parms: SM      M1      
 Compute Stats, Diag. #    219  SIhsnow   vol(   0 ): 3.580E+14  Parms: SM      M1      
 Compute Stats, Diag. #     83  sIceLoad  vol(   0 ): 3.580E+14  Parms: SM      U1      
 Compute Stats, Diag. #    223  SIuice    vol(   0 ): 3.513E+14  Parms: UU      M1      
 Compute Stats, Diag. #    224  SIvice    vol(   0 ): 3.508E+14  Parms: VV      M1      
 Compute Stats, Diag. #    225  SItaux    vol(   0 ): 3.513E+14  Parms: UU      U1      
 Compute Stats, Diag. #    226  SItauy    vol(   0 ): 3.508E+14  Parms: VV      U1      
 cg2d: Sum(rhs),rhsMax =  -6.05626962394961E+01  2.99612933729968E-01
(PID.TID 0000.0001)      cg2d_init_res =   4.15127211331253E-02
(PID.TID 0000.0001)      cg2d_iters(min,last) =      -1      24
(PID.TID 0000.0001)      cg2d_last_res =   2.46733507252967E-05
(PID.TID 0000.0001) // =======================================================
(PID.TID 0000.0001) // Begin MONITOR dynamic field statistics
(PID.TID 0000.0001) // =======================================================
(PID.TID 0000.0001) %MON time_tsnumber                =                  1304
(PID.TID 0000.0001) %MON time_secondsf                =   1.1736000000000E+06
(PID.TID 0000.0001) %MON dynstat_eta_max              =   1.0168694868898E+00
(PID.TID 0000.0001) %MON dynstat_eta_min              =  -1.8679007472427E+00
(PID.TID 0000.0001) %MON dynstat_eta_mean             =   1.9157915064732E-03
(PID.TID 0000.0001) %MON dynstat_eta_sd               =   6.2741112423202E-01
(PID.TID 0000.0001) %MON dynstat_eta_del2             =   5.0596919737505E-05
(PID.TID 0000.0001) %MON dynstat_uvel_max             =   6.4006102762891E-01
(PID.TID 0000.0001) %MON dynstat_uvel_min             =  -9.4984102337364E-01
(PID.TID 0000.0001) %MON dynstat_uvel_mean            =   1.3751347334173E-03
(PID.TID 0000.0001) %MON dynstat_uvel_sd              =   1.8045070152932E-02
(PID.TID 0000.0001) %MON dynstat_uvel_del2            =   7.3525422780266E-06
(PID.TID 0000.0001) %MON dynstat_vvel_max             =   6.5556201879525E-01
(PID.TID 0000.0001) %MON dynstat_vvel_min             =  -1.1023528248305E+00
(PID.TID 0000.0001) %MON dynstat_vvel_mean            =   1.1239840240460E-03
(PID.TID 0000.0001) %MON dynstat_vvel_sd              =   1.9629506880083E-02
(PID.TID 0000.0001) %MON dynstat_vvel_del2            =   7.5707715620958E-06
(PID.TID 0000.0001) %MON dynstat_wvel_max             =   2.9119798397152E-04
(PID.TID 0000.0001) %MON dynstat_wvel_min             =  -7.7232363967227E-04
(PID.TID 0000.0001) %MON dynstat_wvel_mean            =   1.3763935086196E-10
(PID.TID 0000.0001) %MON dynstat_wvel_sd              =   1.6410582954869E-05
(PID.TID 0000.0001) %MON dynstat_wvel_del2            =   1.5464245546691E-08
(PID.TID 0000.0001) %MON dynstat_theta_max            =   3.1306393861857E+01
(PID.TID 0000.0001) %MON dynstat_theta_min            =  -2.0394198729116E+00
(PID.TID 0000.0001) %MON dynstat_theta_mean           =   3.5899738040417E+00
(PID.TID 0000.0001) %MON dynstat_theta_sd             =   4.4367920496360E+00
(PID.TID 0000.0001) %MON dynstat_theta_del2           =   8.9123069124937E-05
(PID.TID 0000.0001) %MON dynstat_salt_max             =   4.0711554674288E+01
(PID.TID 0000.0001) %MON dynstat_salt_min             =   6.8785836273531E+00
(PID.TID 0000.0001) %MON dynstat_salt_mean            =   3.4725554471072E+01
(PID.TID 0000.0001) %MON dynstat_salt_sd              =   3.7717442494167E-01
(PID.TID 0000.0001) %MON dynstat_salt_del2            =   3.7157932579936E-05
(PID.TID 0000.0001) %MON dynstat_sst_max              =   3.1306377822495E+01
(PID.TID 0000.0001) %MON dynstat_sst_min              =  -1.8077904122196E+00
(PID.TID 0000.0001) %MON dynstat_sst_mean             =   1.8428205187016E+01
(PID.TID 0000.0001) %MON dynstat_sst_sd               =   1.0320874445310E+01
(PID.TID 0000.0001) %MON dynstat_sst_del2             =   7.8926131668189E-04
(PID.TID 0000.0001) %MON dynstat_sss_max              =   3.9098184890802E+01
(PID.TID 0000.0001) %MON dynstat_sss_min              =   6.8785836273531E+00
(PID.TID 0000.0001) %MON dynstat_sss_mean             =   3.4702172906439E+01
(PID.TID 0000.0001) %MON dynstat_sss_sd               =   1.1899321486526E+00
(PID.TID 0000.0001) %MON dynstat_sss_del2             =   1.1110061782504E-03
(PID.TID 0000.0001) %MON forcing_qnet_max             =   7.2549853515625E+02
(PID.TID 0000.0001) %MON forcing_qnet_min             =  -6.9324616741516E+02
(PID.TID 0000.0001) %MON forcing_qnet_mean            =   3.0281777408795E+01
(PID.TID 0000.0001) %MON forcing_qnet_sd              =   1.8107260201778E+02
(PID.TID 0000.0001) %MON forcing_qnet_del2            =   3.0922331129657E-01
(PID.TID 0000.0001) %MON forcing_qsw_max              =   0.0000000000000E+00
(PID.TID 0000.0001) %MON forcing_qsw_min              =  -1.0030359928907E+02
(PID.TID 0000.0001) %MON forcing_qsw_mean             =  -1.4465023259920E+01
(PID.TID 0000.0001) %MON forcing_qsw_sd               =   2.4511143511625E+01
(PID.TID 0000.0001) %MON forcing_qsw_del2             =   1.9926762651505E-02
(PID.TID 0000.0001) %MON forcing_empmr_max            =   1.6814507544041E-03
(PID.TID 0000.0001) %MON forcing_empmr_min            =  -4.2479865252972E-02
(PID.TID 0000.0001) %MON forcing_empmr_mean           =  -2.1350545485260E-06
(PID.TID 0000.0001) %MON forcing_empmr_sd             =   2.3162486346231E-04
(PID.TID 0000.0001) %MON forcing_empmr_del2           =   2.9015646240310E-06
(PID.TID 0000.0001) %MON forcing_fu_max               =   1.2543523907661E+00
(PID.TID 0000.0001) %MON forcing_fu_min               =  -1.4813902974129E+00
(PID.TID 0000.0001) %MON forcing_fu_mean              =   3.5125147770621E-03
(PID.TID 0000.0001) %MON forcing_fu_sd                =   1.2975982568355E-01
(PID.TID 0000.0001) %MON forcing_fu_del2              =   1.9641241361415E-04
(PID.TID 0000.0001) %MON forcing_fv_max               =   1.6427627205849E+00
(PID.TID 0000.0001) %MON forcing_fv_min               =  -9.1811624169350E-01
(PID.TID 0000.0001) %MON forcing_fv_mean              =  -6.0341365517119E-03
(PID.TID 0000.0001) %MON forcing_fv_sd                =   1.3121039597081E-01
(PID.TID 0000.0001) %MON forcing_fv_del2              =   1.8593311935589E-04
(PID.TID 0000.0001) %MON trAdv_CFL_u_max              =   1.3988048268390E-02
(PID.TID 0000.0001) %MON trAdv_CFL_v_max              =   1.2553011283651E-02
(PID.TID 0000.0001) %MON trAdv_CFL_w_max              =   2.0392142282111E-02
(PID.TID 0000.0001) %MON advcfl_uvel_max              =   1.2267499612406E-02
(PID.TID 0000.0001) %MON advcfl_vvel_max              =   1.2494960587862E-02
(PID.TID 0000.0001) %MON advcfl_wvel_max              =   2.2606710225556E-02
(PID.TID 0000.0001) %MON advcfl_W_hf_max              =   2.3711051918983E-02
(PID.TID 0000.0001) %MON pe_b_mean                    =   5.1780535054688E-04
(PID.TID 0000.0001) %MON ke_max                       =   6.7591162901325E-01
(PID.TID 0000.0001) %MON ke_mean                      =   3.4433475847862E-04
(PID.TID 0000.0001) %MON ke_vol                       =   1.3349985621507E+18
(PID.TID 0000.0001) %MON vort_r_min                   =  -1.3601655590809E-05
(PID.TID 0000.0001) %MON vort_r_max                   =   1.6252911033235E-05
(PID.TID 0000.0001) %MON vort_a_mean                  =  -1.9727864647440E-05
(PID.TID 0000.0001) %MON vort_a_sd                    =   7.4543003095516E-05
(PID.TID 0000.0001) %MON vort_p_mean                  =  -2.1760523180724E-05
(PID.TID 0000.0001) %MON vort_p_sd                    =   9.7246423538220E-05
(PID.TID 0000.0001) %MON surfExpan_theta_mean         =   1.0996413818014E-07
(PID.TID 0000.0001) %MON surfExpan_salt_mean          =   4.6704074614457E-08
(PID.TID 0000.0001) // =======================================================
(PID.TID 0000.0001) // End MONITOR dynamic field statistics
(PID.TID 0000.0001) // =======================================================
(PID.TID 0000.0001) // =======================================================
(PID.TID 0000.0001) // Begin MONITOR SEAICE statistics
(PID.TID 0000.0001) // =======================================================
(PID.TID 0000.0001) %MON seaice_tsnumber              =                  1304
(PID.TID 0000.0001) %MON seaice_time_sec              =   1.1736000000000E+06
(PID.TID 0000.0001) %MON seaice_uice_max              =   4.0000000000000E-01
(PID.TID 0000.0001) %MON seaice_uice_min              =  -4.0000000000000E-01
(PID.TID 0000.0001) %MON seaice_uice_mean             =  -8.3054598624025E-03
(PID.TID 0000.0001) %MON seaice_uice_sd               =   1.9802383574176E-01
(PID.TID 0000.0001) %MON seaice_uice_del2             =   2.2931571122150E-04
(PID.TID 0000.0001) %MON seaice_vice_max              =   4.0000000000000E-01
(PID.TID 0000.0001) %MON seaice_vice_min              =  -4.0000000000000E-01
(PID.TID 0000.0001) %MON seaice_vice_mean             =  -2.1960776359499E-02
(PID.TID 0000.0001) %MON seaice_vice_sd               =   2.1302038025672E-01
(PID.TID 0000.0001) %MON seaice_vice_del2             =   2.3932563818061E-04
(PID.TID 0000.0001) %MON seaice_area_max              =   9.9999999633292E-01
(PID.TID 0000.0001) %MON seaice_area_min              =   0.0000000000000E+00
(PID.TID 0000.0001) %MON seaice_area_mean             =   6.4035624787184E-02
(PID.TID 0000.0001) %MON seaice_area_sd               =   2.2661783133008E-01
(PID.TID 0000.0001) %MON seaice_area_del2             =   3.6503528841550E-04
(PID.TID 0000.0001) %MON seaice_heff_max              =   2.4864910727076E+01
(PID.TID 0000.0001) %MON seaice_heff_min              =   0.0000000000000E+00
(PID.TID 0000.0001) %MON seaice_heff_mean             =   2.1097370689402E-01
(PID.TID 0000.0001) %MON seaice_heff_sd               =   1.0651962412607E+00
(PID.TID 0000.0001) %MON seaice_heff_del2             =   3.8001818491115E-03
(PID.TID 0000.0001) %MON seaice_hsnow_max             =   8.2128446167626E+00
(PID.TID 0000.0001) %MON seaice_hsnow_min             =   0.0000000000000E+00
(PID.TID 0000.0001) %MON seaice_hsnow_mean            =   2.3854489495312E-02
(PID.TID 0000.0001) %MON seaice_hsnow_sd              =   1.5565192685598E-01
(PID.TID 0000.0001) %MON seaice_hsnow_del2            =   1.2318335568047E-03
(PID.TID 0000.0001) // =======================================================
(PID.TID 0000.0001) // End MONITOR SEAICE statistics
(PID.TID 0000.0001) // =======================================================
 Computing Diagnostic #     86  oceQnet      Counter:       4   Parms: SM      U1      
 Computing Diagnostic #     87  oceQsw       Counter:       4   Parms: SM      U1      
 Computing Diagnostic #     84  oceFWflx     Counter:       4   Parms: SM      U1      
 Computing Diagnostic #     85  oceSflux     Counter:       4   Parms: SM      U1      
 Computing Diagnostic #     80  oceTAUX      Counter:       4   Parms: UU      U1      
           Vector  Mate for  oceTAUX      Diagnostic #     81  oceTAUY  exists 
 Computing Diagnostic #     81  oceTAUY      Counter:       4   Parms: VV      U1      
           Vector  Mate for  oceTAUY      Diagnostic #     80  oceTAUX  exists 
 Computing Diagnostic #     26  THETA        Counter:       4   Parms: SMR     MR      
 Computing Diagnostic #     27  SALT         Counter:       4   Parms: SMR     MR      
 Computing Diagnostic #     30  UVEL         Counter:       4   Parms: UUR     MR      
           Vector  Mate for  UVEL         Diagnostic #     31  VVEL     exists 
 Computing Diagnostic #     31  VVEL         Counter:       4   Parms: VVR     MR      
           Vector  Mate for  VVEL         Diagnostic #     30  UVEL     exists 
 Computing Diagnostic #    214  SIarea       Counter:       4   Parms: SM      M1      
 Computing Diagnostic #    217  SIheff       Counter:       4   Parms: SM      M1      
 Computing Diagnostic #    219  SIhsnow      Counter:       4   Parms: SM      M1      
 Computing Diagnostic #     83  sIceLoad     Counter:       4   Parms: SM      U1      
 Computing Diagnostic #    223  SIuice       Counter:       4   Parms: UU      M1      
           Vector  Mate for  SIuice       Diagnostic #    224  SIvice   exists 
 Computing Diagnostic #    224  SIvice       Counter:       4   Parms: VV      M1      
           Vector  Mate for  SIvice       Diagnostic #    223  SIuice   exists 
 Computing Diagnostic #    225  SItaux       Counter:       4   Parms: UU      U1      
           Vector  Mate for  SItaux       Diagnostic #    226  SItauy   exists 
 Computing Diagnostic #    226  SItauy       Counter:       4   Parms: VV      U1      
           Vector  Mate for  SItauy       Diagnostic #    225  SItaux   exists 
 Computing Diagnostic #    285  SIareaN      Counter:       4   Parms: SM      MX      
 Computing Diagnostic #    284  SIheffN      Counter:       4   Parms: SM      MX      
 Computing Diagnostic #    286  SIhsnowN     Counter:       4   Parms: SM      MX      
 Compute Stats, Diag. #    214  SIarea    vol(   0 ): 3.580E+14  Parms: SM      M1      
 Compute Stats, Diag. #    217  SIheff    vol(   0 ): 3.580E+14  Parms: SM      M1      
 Compute Stats, Diag. #    219  SIhsnow   vol(   0 ): 3.580E+14  Parms: SM      M1      
 Compute Stats, Diag. #     83  sIceLoad  vol(   0 ): 3.580E+14  Parms: SM      U1      
 Compute Stats, Diag. #    223  SIuice    vol(   0 ): 3.513E+14  Parms: UU      M1      
 Compute Stats, Diag. #    224  SIvice    vol(   0 ): 3.508E+14  Parms: VV      M1      
 Compute Stats, Diag. #    225  SItaux    vol(   0 ): 3.513E+14  Parms: UU      U1      
 Compute Stats, Diag. #    226  SItauy    vol(   0 ): 3.508E+14  Parms: VV      U1      
 cg2d: Sum(rhs),rhsMax =  -6.06113295148944E+01  2.99572569681768E-01
 Compute Stats, Diag. #    214  SIarea    vol(   0 ): 3.580E+14  Parms: SM      M1      
 Compute Stats, Diag. #    217  SIheff    vol(   0 ): 3.580E+14  Parms: SM      M1      
 Compute Stats, Diag. #    219  SIhsnow   vol(   0 ): 3.580E+14  Parms: SM      M1      
 Compute Stats, Diag. #     83  sIceLoad  vol(   0 ): 3.580E+14  Parms: SM      U1      
 Compute Stats, Diag. #    223  SIuice    vol(   0 ): 3.513E+14  Parms: UU      M1      
 Compute Stats, Diag. #    224  SIvice    vol(   0 ): 3.508E+14  Parms: VV      M1      
 Compute Stats, Diag. #    225  SItaux    vol(   0 ): 3.513E+14  Parms: UU      U1      
 Compute Stats, Diag. #    226  SItauy    vol(   0 ): 3.508E+14  Parms: VV      U1      
 cg2d: Sum(rhs),rhsMax =  -6.06723242911744E+01  2.99530862023576E-01
 Compute Stats, Diag. #    214  SIarea    vol(   0 ): 3.580E+14  Parms: SM      M1      
 Compute Stats, Diag. #    217  SIheff    vol(   0 ): 3.580E+14  Parms: SM      M1      
 Compute Stats, Diag. #    219  SIhsnow   vol(   0 ): 3.580E+14  Parms: SM      M1      
 Compute Stats, Diag. #     83  sIceLoad  vol(   0 ): 3.580E+14  Parms: SM      U1      
 Compute Stats, Diag. #    223  SIuice    vol(   0 ): 3.513E+14  Parms: UU      M1      
 Compute Stats, Diag. #    224  SIvice    vol(   0 ): 3.508E+14  Parms: VV      M1      
 Compute Stats, Diag. #    225  SItaux    vol(   0 ): 3.513E+14  Parms: UU      U1      
 Compute Stats, Diag. #    226  SItauy    vol(   0 ): 3.508E+14  Parms: VV      U1      
 cg2d: Sum(rhs),rhsMax =  -6.07328906354270E+01  2.99490696504004E-01
 Compute Stats, Diag. #    214  SIarea    vol(   0 ): 3.580E+14  Parms: SM      M1      
 Compute Stats, Diag. #    217  SIheff    vol(   0 ): 3.580E+14  Parms: SM      M1      
 Compute Stats, Diag. #    219  SIhsnow   vol(   0 ): 3.580E+14  Parms: SM      M1      
 Compute Stats, Diag. #     83  sIceLoad  vol(   0 ): 3.580E+14  Parms: SM      U1      
 Compute Stats, Diag. #    223  SIuice    vol(   0 ): 3.513E+14  Parms: UU      M1      
 Compute Stats, Diag. #    224  SIvice    vol(   0 ): 3.508E+14  Parms: VV      M1      
 Compute Stats, Diag. #    225  SItaux    vol(   0 ): 3.513E+14  Parms: UU      U1      
 Compute Stats, Diag. #    226  SItauy    vol(   0 ): 3.508E+14  Parms: VV      U1      
 cg2d: Sum(rhs),rhsMax =  -6.07875317043521E+01  2.99453354817070E-01
 Computing Diagnostic #     86  oceQnet      Counter:       4   Parms: SM      U1      
 Computing Diagnostic #     87  oceQsw       Counter:       4   Parms: SM      U1      
 Computing Diagnostic #     84  oceFWflx     Counter:       4   Parms: SM      U1      
 Computing Diagnostic #     85  oceSflux     Counter:       4   Parms: SM      U1      
 Computing Diagnostic #     80  oceTAUX      Counter:       4   Parms: UU      U1      
           Vector  Mate for  oceTAUX      Diagnostic #     81  oceTAUY  exists 
 Computing Diagnostic #     81  oceTAUY      Counter:       4   Parms: VV      U1      
           Vector  Mate for  oceTAUY      Diagnostic #     80  oceTAUX  exists 
 Computing Diagnostic #     26  THETA        Counter:       4   Parms: SMR     MR      
 Computing Diagnostic #     27  SALT         Counter:       4   Parms: SMR     MR      
 Computing Diagnostic #     30  UVEL         Counter:       4   Parms: UUR     MR      
           Vector  Mate for  UVEL         Diagnostic #     31  VVEL     exists 
 Computing Diagnostic #     31  VVEL         Counter:       4   Parms: VVR     MR      
           Vector  Mate for  VVEL         Diagnostic #     30  UVEL     exists 
 Computing Diagnostic #    214  SIarea       Counter:       4   Parms: SM      M1      
 Computing Diagnostic #    217  SIheff       Counter:       4   Parms: SM      M1      
 Computing Diagnostic #    219  SIhsnow      Counter:       4   Parms: SM      M1      
 Computing Diagnostic #     83  sIceLoad     Counter:       4   Parms: SM      U1      
 Computing Diagnostic #    223  SIuice       Counter:       4   Parms: UU      M1      
           Vector  Mate for  SIuice       Diagnostic #    224  SIvice   exists 
 Computing Diagnostic #    224  SIvice       Counter:       4   Parms: VV      M1      
           Vector  Mate for  SIvice       Diagnostic #    223  SIuice   exists 
 Computing Diagnostic #    225  SItaux       Counter:       4   Parms: UU      U1      
           Vector  Mate for  SItaux       Diagnostic #    226  SItauy   exists 
 Computing Diagnostic #    226  SItauy       Counter:       4   Parms: VV      U1      
           Vector  Mate for  SItauy       Diagnostic #    225  SItaux   exists 
 Computing Diagnostic #    285  SIareaN      Counter:       4   Parms: SM      MX      
 Computing Diagnostic #    284  SIheffN      Counter:       4   Parms: SM      MX      
 Computing Diagnostic #    286  SIhsnowN     Counter:       4   Parms: SM      MX      
 Compute Stats, Diag. #    214  SIarea    vol(   0 ): 3.580E+14  Parms: SM      M1      
 Compute Stats, Diag. #    217  SIheff    vol(   0 ): 3.580E+14  Parms: SM      M1      
 Compute Stats, Diag. #    219  SIhsnow   vol(   0 ): 3.580E+14  Parms: SM      M1      
 Compute Stats, Diag. #     83  sIceLoad  vol(   0 ): 3.580E+14  Parms: SM      U1      
 Compute Stats, Diag. #    223  SIuice    vol(   0 ): 3.513E+14  Parms: UU      M1      
 Compute Stats, Diag. #    224  SIvice    vol(   0 ): 3.508E+14  Parms: VV      M1      
 Compute Stats, Diag. #    225  SItaux    vol(   0 ): 3.513E+14  Parms: UU      U1      
 Compute Stats, Diag. #    226  SItauy    vol(   0 ): 3.508E+14  Parms: VV      U1      
 cg2d: Sum(rhs),rhsMax =  -6.08486885549513E+01  2.99417507931558E-01
 Compute Stats, Diag. #    214  SIarea    vol(   0 ): 3.580E+14  Parms: SM      M1      
 Compute Stats, Diag. #    217  SIheff    vol(   0 ): 3.580E+14  Parms: SM      M1      
 Compute Stats, Diag. #    219  SIhsnow   vol(   0 ): 3.580E+14  Parms: SM      M1      
 Compute Stats, Diag. #     83  sIceLoad  vol(   0 ): 3.580E+14  Parms: SM      U1      
 Compute Stats, Diag. #    223  SIuice    vol(   0 ): 3.513E+14  Parms: UU      M1      
 Compute Stats, Diag. #    224  SIvice    vol(   0 ): 3.508E+14  Parms: VV      M1      
 Compute Stats, Diag. #    225  SItaux    vol(   0 ): 3.513E+14  Parms: UU      U1      
 Compute Stats, Diag. #    226  SItauy    vol(   0 ): 3.508E+14  Parms: VV      U1      
 cg2d: Sum(rhs),rhsMax =  -6.09148623377540E+01  2.99386609559764E-01
 Compute Stats, Diag. #    214  SIarea    vol(   0 ): 3.580E+14  Parms: SM      M1      
 Compute Stats, Diag. #    217  SIheff    vol(   0 ): 3.580E+14  Parms: SM      M1      
 Compute Stats, Diag. #    219  SIhsnow   vol(   0 ): 3.580E+14  Parms: SM      M1      
 Compute Stats, Diag. #     83  sIceLoad  vol(   0 ): 3.580E+14  Parms: SM      U1      
 Compute Stats, Diag. #    223  SIuice    vol(   0 ): 3.513E+14  Parms: UU      M1      
 Compute Stats, Diag. #    224  SIvice    vol(   0 ): 3.508E+14  Parms: VV      M1      
 Compute Stats, Diag. #    225  SItaux    vol(   0 ): 3.513E+14  Parms: UU      U1      
 Compute Stats, Diag. #    226  SItauy    vol(   0 ): 3.508E+14  Parms: VV      U1      
 cg2d: Sum(rhs),rhsMax =  -6.09823066790941E+01  2.99362083606522E-01
 Compute Stats, Diag. #    214  SIarea    vol(   0 ): 3.580E+14  Parms: SM      M1      
 Compute Stats, Diag. #    217  SIheff    vol(   0 ): 3.580E+14  Parms: SM      M1      
 Compute Stats, Diag. #    219  SIhsnow   vol(   0 ): 3.580E+14  Parms: SM      M1      
 Compute Stats, Diag. #     83  sIceLoad  vol(   0 ): 3.580E+14  Parms: SM      U1      
 Compute Stats, Diag. #    223  SIuice    vol(   0 ): 3.513E+14  Parms: UU      M1      
 Compute Stats, Diag. #    224  SIvice    vol(   0 ): 3.508E+14  Parms: VV      M1      
 Compute Stats, Diag. #    225  SItaux    vol(   0 ): 3.513E+14  Parms: UU      U1      
 Compute Stats, Diag. #    226  SItauy    vol(   0 ): 3.508E+14  Parms: VV      U1      
 cg2d: Sum(rhs),rhsMax =  -6.10387325934771E+01  2.99342477552984E-01
(PID.TID 0000.0001)      cg2d_init_res =   4.03683401318676E-02
(PID.TID 0000.0001)      cg2d_iters(min,last) =      -1      24
(PID.TID 0000.0001)      cg2d_last_res =   2.70863117231558E-05
(PID.TID 0000.0001) // =======================================================
(PID.TID 0000.0001) // Begin MONITOR dynamic field statistics
(PID.TID 0000.0001) // =======================================================
(PID.TID 0000.0001) %MON time_tsnumber                =                  1312
(PID.TID 0000.0001) %MON time_secondsf                =   1.1808000000000E+06
(PID.TID 0000.0001) %MON dynstat_eta_max              =   1.0169712539611E+00
(PID.TID 0000.0001) %MON dynstat_eta_min              =  -1.8684056184772E+00
(PID.TID 0000.0001) %MON dynstat_eta_mean             =   1.9308500567088E-03
(PID.TID 0000.0001) %MON dynstat_eta_sd               =   6.2758509109324E-01
(PID.TID 0000.0001) %MON dynstat_eta_del2             =   5.0451244418505E-05
(PID.TID 0000.0001) %MON dynstat_uvel_max             =   6.4026487958611E-01
(PID.TID 0000.0001) %MON dynstat_uvel_min             =  -9.5524373565459E-01
(PID.TID 0000.0001) %MON dynstat_uvel_mean            =   1.3666393018923E-03
(PID.TID 0000.0001) %MON dynstat_uvel_sd              =   1.8053902278154E-02
(PID.TID 0000.0001) %MON dynstat_uvel_del2            =   7.3945130310883E-06
(PID.TID 0000.0001) %MON dynstat_vvel_max             =   6.6501264505738E-01
(PID.TID 0000.0001) %MON dynstat_vvel_min             =  -1.1088138961040E+00
(PID.TID 0000.0001) %MON dynstat_vvel_mean            =   1.1281766434958E-03
(PID.TID 0000.0001) %MON dynstat_vvel_sd              =   1.9631319132610E-02
(PID.TID 0000.0001) %MON dynstat_vvel_del2            =   7.5688786292878E-06
(PID.TID 0000.0001) %MON dynstat_wvel_max             =   2.9043566834981E-04
(PID.TID 0000.0001) %MON dynstat_wvel_min             =  -7.7431006411575E-04
(PID.TID 0000.0001) %MON dynstat_wvel_mean            =   2.1264200033260E-10
(PID.TID 0000.0001) %MON dynstat_wvel_sd              =   1.6305752997049E-05
(PID.TID 0000.0001) %MON dynstat_wvel_del2            =   1.5647109571725E-08
(PID.TID 0000.0001) %MON dynstat_theta_max            =   3.1285606539004E+01
(PID.TID 0000.0001) %MON dynstat_theta_min            =  -2.0394116385612E+00
(PID.TID 0000.0001) %MON dynstat_theta_mean           =   3.5899621878519E+00
(PID.TID 0000.0001) %MON dynstat_theta_sd             =   4.4367602965938E+00
(PID.TID 0000.0001) %MON dynstat_theta_del2           =   8.9105776383816E-05
(PID.TID 0000.0001) %MON dynstat_salt_max             =   4.0711555061305E+01
(PID.TID 0000.0001) %MON dynstat_salt_min             =   6.9673590492321E+00
(PID.TID 0000.0001) %MON dynstat_salt_mean            =   3.4725554335506E+01
(PID.TID 0000.0001) %MON dynstat_salt_sd              =   3.7717566126462E-01
(PID.TID 0000.0001) %MON dynstat_salt_del2            =   3.7146813036283E-05
(PID.TID 0000.0001) %MON dynstat_sst_max              =   3.1285589923478E+01
(PID.TID 0000.0001) %MON dynstat_sst_min              =  -1.8094660626733E+00
(PID.TID 0000.0001) %MON dynstat_sst_mean             =   1.8426623521287E+01
(PID.TID 0000.0001) %MON dynstat_sst_sd               =   1.0321167693212E+01
(PID.TID 0000.0001) %MON dynstat_sst_del2             =   7.8825031686085E-04
(PID.TID 0000.0001) %MON dynstat_sss_max              =   3.9098157823082E+01
(PID.TID 0000.0001) %MON dynstat_sss_min              =   6.9673590492321E+00
(PID.TID 0000.0001) %MON dynstat_sss_mean             =   3.4702199831198E+01
(PID.TID 0000.0001) %MON dynstat_sss_sd               =   1.1900899634031E+00
(PID.TID 0000.0001) %MON dynstat_sss_del2             =   1.1090220754022E-03
(PID.TID 0000.0001) %MON forcing_qnet_max             =   5.7043127441406E+02
(PID.TID 0000.0001) %MON forcing_qnet_min             =  -7.8833545458595E+02
(PID.TID 0000.0001) %MON forcing_qnet_mean            =   2.0751909384305E+01
(PID.TID 0000.0001) %MON forcing_qnet_sd              =   2.0784262065640E+02
(PID.TID 0000.0001) %MON forcing_qnet_del2            =   3.1698815873644E-01
(PID.TID 0000.0001) %MON forcing_qsw_max              =   0.0000000000000E+00
(PID.TID 0000.0001) %MON forcing_qsw_min              =  -1.0499707231527E+02
(PID.TID 0000.0001) %MON forcing_qsw_mean             =  -1.5618359652901E+01
(PID.TID 0000.0001) %MON forcing_qsw_sd               =   2.7879918967829E+01
(PID.TID 0000.0001) %MON forcing_qsw_del2             =   2.0363315296969E-02
(PID.TID 0000.0001) %MON forcing_empmr_max            =   1.9165039993823E-03
(PID.TID 0000.0001) %MON forcing_empmr_min            =  -4.4391375035048E-02
(PID.TID 0000.0001) %MON forcing_empmr_mean           =  -2.0407721209312E-06
(PID.TID 0000.0001) %MON forcing_empmr_sd             =   2.2394256716317E-04
(PID.TID 0000.0001) %MON forcing_empmr_del2           =   2.5127929302229E-06
(PID.TID 0000.0001) %MON forcing_fu_max               =   1.1591717600822E+00
(PID.TID 0000.0001) %MON forcing_fu_min               =  -1.6139780282974E+00
(PID.TID 0000.0001) %MON forcing_fu_mean              =   2.9664748808252E-03
(PID.TID 0000.0001) %MON forcing_fu_sd                =   1.3063833270953E-01
(PID.TID 0000.0001) %MON forcing_fu_del2              =   1.9651246419345E-04
(PID.TID 0000.0001) %MON forcing_fv_max               =   1.3807379603386E+00
(PID.TID 0000.0001) %MON forcing_fv_min               =  -8.9950740337372E-01
(PID.TID 0000.0001) %MON forcing_fv_mean              =  -4.9449084176457E-03
(PID.TID 0000.0001) %MON forcing_fv_sd                =   1.3004139109822E-01
(PID.TID 0000.0001) %MON forcing_fv_del2              =   1.8114970894248E-04
(PID.TID 0000.0001) %MON trAdv_CFL_u_max              =   1.4036352314878E-02
(PID.TID 0000.0001) %MON trAdv_CFL_v_max              =   1.2473004038015E-02
(PID.TID 0000.0001) %MON trAdv_CFL_w_max              =   2.0575049902690E-02
(PID.TID 0000.0001) %MON advcfl_uvel_max              =   1.2315001764722E-02
(PID.TID 0000.0001) %MON advcfl_vvel_max              =   1.2521747418527E-02
(PID.TID 0000.0001) %MON advcfl_wvel_max              =   2.2576661203836E-02
(PID.TID 0000.0001) %MON advcfl_W_hf_max              =   2.3679513179719E-02
(PID.TID 0000.0001) %MON pe_b_mean                    =   5.1809261310707E-04
(PID.TID 0000.0001) %MON ke_max                       =   6.8341672057777E-01
(PID.TID 0000.0001) %MON ke_mean                      =   3.4451609751257E-04
(PID.TID 0000.0001) %MON ke_vol                       =   1.3349985675713E+18
(PID.TID 0000.0001) %MON vort_r_min                   =  -1.3790874652159E-05
(PID.TID 0000.0001) %MON vort_r_max                   =   1.6926878806360E-05
(PID.TID 0000.0001) %MON vort_a_mean                  =  -1.9727864647440E-05
(PID.TID 0000.0001) %MON vort_a_sd                    =   7.4543003546480E-05
(PID.TID 0000.0001) %MON vort_p_mean                  =  -2.1760523097662E-05
(PID.TID 0000.0001) %MON vort_p_sd                    =   9.7246356284816E-05
(PID.TID 0000.0001) %MON surfExpan_theta_mean         =   9.6750524677275E-08
(PID.TID 0000.0001) %MON surfExpan_salt_mean          =   4.4023599604162E-08
(PID.TID 0000.0001) // =======================================================
(PID.TID 0000.0001) // End MONITOR dynamic field statistics
(PID.TID 0000.0001) // =======================================================
(PID.TID 0000.0001) // =======================================================
(PID.TID 0000.0001) // Begin MONITOR SEAICE statistics
(PID.TID 0000.0001) // =======================================================
(PID.TID 0000.0001) %MON seaice_tsnumber              =                  1312
(PID.TID 0000.0001) %MON seaice_time_sec              =   1.1808000000000E+06
(PID.TID 0000.0001) %MON seaice_uice_max              =   4.0000000000000E-01
(PID.TID 0000.0001) %MON seaice_uice_min              =  -4.0000000000000E-01
(PID.TID 0000.0001) %MON seaice_uice_mean             =  -8.3054598624025E-03
(PID.TID 0000.0001) %MON seaice_uice_sd               =   1.9802383574176E-01
(PID.TID 0000.0001) %MON seaice_uice_del2             =   2.2931571122150E-04
(PID.TID 0000.0001) %MON seaice_vice_max              =   4.0000000000000E-01
(PID.TID 0000.0001) %MON seaice_vice_min              =  -4.0000000000000E-01
(PID.TID 0000.0001) %MON seaice_vice_mean             =  -2.1960776359499E-02
(PID.TID 0000.0001) %MON seaice_vice_sd               =   2.1302038025672E-01
(PID.TID 0000.0001) %MON seaice_vice_del2             =   2.3932563818061E-04
(PID.TID 0000.0001) %MON seaice_area_max              =   9.9999998504063E-01
(PID.TID 0000.0001) %MON seaice_area_min              =   0.0000000000000E+00
(PID.TID 0000.0001) %MON seaice_area_mean             =   6.4012938255090E-02
(PID.TID 0000.0001) %MON seaice_area_sd               =   2.2658165600175E-01
(PID.TID 0000.0001) %MON seaice_area_del2             =   3.6456860190658E-04
(PID.TID 0000.0001) %MON seaice_heff_max              =   2.4863651138614E+01
(PID.TID 0000.0001) %MON seaice_heff_min              =   0.0000000000000E+00
(PID.TID 0000.0001) %MON seaice_heff_mean             =   2.1095724024461E-01
(PID.TID 0000.0001) %MON seaice_heff_sd               =   1.0651868281122E+00
(PID.TID 0000.0001) %MON seaice_heff_del2             =   3.7996314799584E-03
(PID.TID 0000.0001) %MON seaice_hsnow_max             =   8.2124236809032E+00
(PID.TID 0000.0001) %MON seaice_hsnow_min             =   0.0000000000000E+00
(PID.TID 0000.0001) %MON seaice_hsnow_mean            =   2.3858415322411E-02
(PID.TID 0000.0001) %MON seaice_hsnow_sd              =   1.5565616818753E-01
(PID.TID 0000.0001) %MON seaice_hsnow_del2            =   1.2317678341710E-03
(PID.TID 0000.0001) // =======================================================
(PID.TID 0000.0001) // End MONITOR SEAICE statistics
(PID.TID 0000.0001) // =======================================================
 Computing Diagnostic #     86  oceQnet      Counter:       4   Parms: SM      U1      
 Computing Diagnostic #     87  oceQsw       Counter:       4   Parms: SM      U1      
 Computing Diagnostic #     84  oceFWflx     Counter:       4   Parms: SM      U1      
 Computing Diagnostic #     85  oceSflux     Counter:       4   Parms: SM      U1      
 Computing Diagnostic #     80  oceTAUX      Counter:       4   Parms: UU      U1      
           Vector  Mate for  oceTAUX      Diagnostic #     81  oceTAUY  exists 
 Computing Diagnostic #     81  oceTAUY      Counter:       4   Parms: VV      U1      
           Vector  Mate for  oceTAUY      Diagnostic #     80  oceTAUX  exists 
 Computing Diagnostic #     26  THETA        Counter:       4   Parms: SMR     MR      
 Computing Diagnostic #     27  SALT         Counter:       4   Parms: SMR     MR      
 Computing Diagnostic #     30  UVEL         Counter:       4   Parms: UUR     MR      
           Vector  Mate for  UVEL         Diagnostic #     31  VVEL     exists 
 Computing Diagnostic #     31  VVEL         Counter:       4   Parms: VVR     MR      
           Vector  Mate for  VVEL         Diagnostic #     30  UVEL     exists 
 Computing Diagnostic #    214  SIarea       Counter:       4   Parms: SM      M1      
 Computing Diagnostic #    217  SIheff       Counter:       4   Parms: SM      M1      
 Computing Diagnostic #    219  SIhsnow      Counter:       4   Parms: SM      M1      
 Computing Diagnostic #     83  sIceLoad     Counter:       4   Parms: SM      U1      
 Computing Diagnostic #    223  SIuice       Counter:       4   Parms: UU      M1      
           Vector  Mate for  SIuice       Diagnostic #    224  SIvice   exists 
 Computing Diagnostic #    224  SIvice       Counter:       4   Parms: VV      M1      
           Vector  Mate for  SIvice       Diagnostic #    223  SIuice   exists 
 Computing Diagnostic #    225  SItaux       Counter:       4   Parms: UU      U1      
           Vector  Mate for  SItaux       Diagnostic #    226  SItauy   exists 
 Computing Diagnostic #    226  SItauy       Counter:       4   Parms: VV      U1      
           Vector  Mate for  SItauy       Diagnostic #    225  SItaux   exists 
 Computing Diagnostic #    285  SIareaN      Counter:       4   Parms: SM      MX      
 Computing Diagnostic #    284  SIheffN      Counter:       4   Parms: SM      MX      
 Computing Diagnostic #    286  SIhsnowN     Counter:       4   Parms: SM      MX      
 Compute Stats, Diag. #    214  SIarea    vol(   0 ): 3.580E+14  Parms: SM      M1      
 Compute Stats, Diag. #    217  SIheff    vol(   0 ): 3.580E+14  Parms: SM      M1      
 Compute Stats, Diag. #    219  SIhsnow   vol(   0 ): 3.580E+14  Parms: SM      M1      
 Compute Stats, Diag. #     83  sIceLoad  vol(   0 ): 3.580E+14  Parms: SM      U1      
 Compute Stats, Diag. #    223  SIuice    vol(   0 ): 3.513E+14  Parms: UU      M1      
 Compute Stats, Diag. #    224  SIvice    vol(   0 ): 3.508E+14  Parms: VV      M1      
 Compute Stats, Diag. #    225  SItaux    vol(   0 ): 3.513E+14  Parms: UU      U1      
 Compute Stats, Diag. #    226  SItauy    vol(   0 ): 3.508E+14  Parms: VV      U1      
 cg2d: Sum(rhs),rhsMax =  -6.10970464377091E+01  2.99327801504049E-01
 Compute Stats, Diag. #    214  SIarea    vol(   0 ): 3.580E+14  Parms: SM      M1      
 Compute Stats, Diag. #    217  SIheff    vol(   0 ): 3.580E+14  Parms: SM      M1      
 Compute Stats, Diag. #    219  SIhsnow   vol(   0 ): 3.580E+14  Parms: SM      M1      
 Compute Stats, Diag. #     83  sIceLoad  vol(   0 ): 3.580E+14  Parms: SM      U1      
 Compute Stats, Diag. #    223  SIuice    vol(   0 ): 3.513E+14  Parms: UU      M1      
 Compute Stats, Diag. #    224  SIvice    vol(   0 ): 3.508E+14  Parms: VV      M1      
 Compute Stats, Diag. #    225  SItaux    vol(   0 ): 3.513E+14  Parms: UU      U1      
 Compute Stats, Diag. #    226  SItauy    vol(   0 ): 3.508E+14  Parms: VV      U1      
 cg2d: Sum(rhs),rhsMax =  -6.11579072555371E+01  2.99318339717197E-01
 Compute Stats, Diag. #    214  SIarea    vol(   0 ): 3.580E+14  Parms: SM      M1      
 Compute Stats, Diag. #    217  SIheff    vol(   0 ): 3.580E+14  Parms: SM      M1      
 Compute Stats, Diag. #    219  SIhsnow   vol(   0 ): 3.580E+14  Parms: SM      M1      
 Compute Stats, Diag. #     83  sIceLoad  vol(   0 ): 3.580E+14  Parms: SM      U1      
 Compute Stats, Diag. #    223  SIuice    vol(   0 ): 3.513E+14  Parms: UU      M1      
 Compute Stats, Diag. #    224  SIvice    vol(   0 ): 3.508E+14  Parms: VV      M1      
 Compute Stats, Diag. #    225  SItaux    vol(   0 ): 3.513E+14  Parms: UU      U1      
 Compute Stats, Diag. #    226  SItauy    vol(   0 ): 3.508E+14  Parms: VV      U1      
 cg2d: Sum(rhs),rhsMax =  -6.12277968395920E+01  2.99314959261956E-01
 Compute Stats, Diag. #    214  SIarea    vol(   0 ): 3.580E+14  Parms: SM      M1      
 Compute Stats, Diag. #    217  SIheff    vol(   0 ): 3.580E+14  Parms: SM      M1      
 Compute Stats, Diag. #    219  SIhsnow   vol(   0 ): 3.580E+14  Parms: SM      M1      
 Compute Stats, Diag. #     83  sIceLoad  vol(   0 ): 3.580E+14  Parms: SM      U1      
 Compute Stats, Diag. #    223  SIuice    vol(   0 ): 3.513E+14  Parms: UU      M1      
 Compute Stats, Diag. #    224  SIvice    vol(   0 ): 3.508E+14  Parms: VV      M1      
 Compute Stats, Diag. #    225  SItaux    vol(   0 ): 3.513E+14  Parms: UU      U1      
 Compute Stats, Diag. #    226  SItauy    vol(   0 ): 3.508E+14  Parms: VV      U1      
 cg2d: Sum(rhs),rhsMax =  -6.13026765326407E+01  2.99317695026406E-01
 Computing Diagnostic #     86  oceQnet      Counter:       4   Parms: SM      U1      
 Computing Diagnostic #     87  oceQsw       Counter:       4   Parms: SM      U1      
 Computing Diagnostic #     84  oceFWflx     Counter:       4   Parms: SM      U1      
 Computing Diagnostic #     85  oceSflux     Counter:       4   Parms: SM      U1      
 Computing Diagnostic #     80  oceTAUX      Counter:       4   Parms: UU      U1      
           Vector  Mate for  oceTAUX      Diagnostic #     81  oceTAUY  exists 
 Computing Diagnostic #     81  oceTAUY      Counter:       4   Parms: VV      U1      
           Vector  Mate for  oceTAUY      Diagnostic #     80  oceTAUX  exists 
 Computing Diagnostic #     26  THETA        Counter:       4   Parms: SMR     MR      
 Computing Diagnostic #     27  SALT         Counter:       4   Parms: SMR     MR      
 Computing Diagnostic #     30  UVEL         Counter:       4   Parms: UUR     MR      
           Vector  Mate for  UVEL         Diagnostic #     31  VVEL     exists 
 Computing Diagnostic #     31  VVEL         Counter:       4   Parms: VVR     MR      
           Vector  Mate for  VVEL         Diagnostic #     30  UVEL     exists 
 Computing Diagnostic #    214  SIarea       Counter:       4   Parms: SM      M1      
 Computing Diagnostic #    217  SIheff       Counter:       4   Parms: SM      M1      
 Computing Diagnostic #    219  SIhsnow      Counter:       4   Parms: SM      M1      
 Computing Diagnostic #     83  sIceLoad     Counter:       4   Parms: SM      U1      
 Computing Diagnostic #    223  SIuice       Counter:       4   Parms: UU      M1      
           Vector  Mate for  SIuice       Diagnostic #    224  SIvice   exists 
 Computing Diagnostic #    224  SIvice       Counter:       4   Parms: VV      M1      
           Vector  Mate for  SIvice       Diagnostic #    223  SIuice   exists 
 Computing Diagnostic #    225  SItaux       Counter:       4   Parms: UU      U1      
           Vector  Mate for  SItaux       Diagnostic #    226  SItauy   exists 
 Computing Diagnostic #    226  SItauy       Counter:       4   Parms: VV      U1      
           Vector  Mate for  SItauy       Diagnostic #    225  SItaux   exists 
 Computing Diagnostic #    285  SIareaN      Counter:       4   Parms: SM      MX      
 Computing Diagnostic #    284  SIheffN      Counter:       4   Parms: SM      MX      
 Computing Diagnostic #    286  SIhsnowN     Counter:       4   Parms: SM      MX      
 Compute Stats, Diag. #    214  SIarea    vol(   0 ): 3.580E+14  Parms: SM      M1      
 Compute Stats, Diag. #    217  SIheff    vol(   0 ): 3.580E+14  Parms: SM      M1      
 Compute Stats, Diag. #    219  SIhsnow   vol(   0 ): 3.580E+14  Parms: SM      M1      
 Compute Stats, Diag. #     83  sIceLoad  vol(   0 ): 3.580E+14  Parms: SM      U1      
 Compute Stats, Diag. #    223  SIuice    vol(   0 ): 3.513E+14  Parms: UU      M1      
 Compute Stats, Diag. #    224  SIvice    vol(   0 ): 3.508E+14  Parms: VV      M1      
 Compute Stats, Diag. #    225  SItaux    vol(   0 ): 3.513E+14  Parms: UU      U1      
 Compute Stats, Diag. #    226  SItauy    vol(   0 ): 3.508E+14  Parms: VV      U1      
 cg2d: Sum(rhs),rhsMax =  -6.13836063246697E+01  2.99327533142145E-01
 Compute Stats, Diag. #    214  SIarea    vol(   0 ): 3.580E+14  Parms: SM      M1      
 Compute Stats, Diag. #    217  SIheff    vol(   0 ): 3.580E+14  Parms: SM      M1      
 Compute Stats, Diag. #    219  SIhsnow   vol(   0 ): 3.580E+14  Parms: SM      M1      
 Compute Stats, Diag. #     83  sIceLoad  vol(   0 ): 3.580E+14  Parms: SM      U1      
 Compute Stats, Diag. #    223  SIuice    vol(   0 ): 3.513E+14  Parms: UU      M1      
 Compute Stats, Diag. #    224  SIvice    vol(   0 ): 3.508E+14  Parms: VV      M1      
 Compute Stats, Diag. #    225  SItaux    vol(   0 ): 3.513E+14  Parms: UU      U1      
 Compute Stats, Diag. #    226  SItauy    vol(   0 ): 3.508E+14  Parms: VV      U1      
 cg2d: Sum(rhs),rhsMax =  -6.14624477382573E+01  2.99343341662665E-01
 Compute Stats, Diag. #    214  SIarea    vol(   0 ): 3.580E+14  Parms: SM      M1      
 Compute Stats, Diag. #    217  SIheff    vol(   0 ): 3.580E+14  Parms: SM      M1      
 Compute Stats, Diag. #    219  SIhsnow   vol(   0 ): 3.580E+14  Parms: SM      M1      
 Compute Stats, Diag. #     83  sIceLoad  vol(   0 ): 3.580E+14  Parms: SM      U1      
 Compute Stats, Diag. #    223  SIuice    vol(   0 ): 3.513E+14  Parms: UU      M1      
 Compute Stats, Diag. #    224  SIvice    vol(   0 ): 3.508E+14  Parms: VV      M1      
 Compute Stats, Diag. #    225  SItaux    vol(   0 ): 3.513E+14  Parms: UU      U1      
 Compute Stats, Diag. #    226  SItauy    vol(   0 ): 3.508E+14  Parms: VV      U1      
 cg2d: Sum(rhs),rhsMax =  -6.15411150389117E+01  2.99365916150711E-01
 Compute Stats, Diag. #    214  SIarea    vol(   0 ): 3.580E+14  Parms: SM      M1      
 Compute Stats, Diag. #    217  SIheff    vol(   0 ): 3.580E+14  Parms: SM      M1      
 Compute Stats, Diag. #    219  SIhsnow   vol(   0 ): 3.580E+14  Parms: SM      M1      
 Compute Stats, Diag. #     83  sIceLoad  vol(   0 ): 3.580E+14  Parms: SM      U1      
 Compute Stats, Diag. #    223  SIuice    vol(   0 ): 3.513E+14  Parms: UU      M1      
 Compute Stats, Diag. #    224  SIvice    vol(   0 ): 3.508E+14  Parms: VV      M1      
 Compute Stats, Diag. #    225  SItaux    vol(   0 ): 3.513E+14  Parms: UU      U1      
 Compute Stats, Diag. #    226  SItauy    vol(   0 ): 3.508E+14  Parms: VV      U1      
 cg2d: Sum(rhs),rhsMax =  -6.16243700366562E+01  2.99396620604121E-01
(PID.TID 0000.0001)      cg2d_init_res =   3.95290297784403E-02
(PID.TID 0000.0001)      cg2d_iters(min,last) =      -1      24
(PID.TID 0000.0001)      cg2d_last_res =   2.68533182867348E-05
(PID.TID 0000.0001) // =======================================================
(PID.TID 0000.0001) // Begin MONITOR dynamic field statistics
(PID.TID 0000.0001) // =======================================================
(PID.TID 0000.0001) %MON time_tsnumber                =                  1320
(PID.TID 0000.0001) %MON time_secondsf                =   1.1880000000000E+06
(PID.TID 0000.0001) %MON dynstat_eta_max              =   1.0172460201383E+00
(PID.TID 0000.0001) %MON dynstat_eta_min              =  -1.8702399722039E+00
(PID.TID 0000.0001) %MON dynstat_eta_mean             =   1.9493756394384E-03
(PID.TID 0000.0001) %MON dynstat_eta_sd               =   6.2777316656010E-01
(PID.TID 0000.0001) %MON dynstat_eta_del2             =   5.0438390347100E-05
(PID.TID 0000.0001) %MON dynstat_uvel_max             =   6.4024130822590E-01
(PID.TID 0000.0001) %MON dynstat_uvel_min             =  -9.6458016774272E-01
(PID.TID 0000.0001) %MON dynstat_uvel_mean            =   1.3617089107894E-03
(PID.TID 0000.0001) %MON dynstat_uvel_sd              =   1.8058878703830E-02
(PID.TID 0000.0001) %MON dynstat_uvel_del2            =   7.4104448419042E-06
(PID.TID 0000.0001) %MON dynstat_vvel_max             =   6.7563237084800E-01
(PID.TID 0000.0001) %MON dynstat_vvel_min             =  -1.1186079398374E+00
(PID.TID 0000.0001) %MON dynstat_vvel_mean            =   1.1358725027417E-03
(PID.TID 0000.0001) %MON dynstat_vvel_sd              =   1.9631805942834E-02
(PID.TID 0000.0001) %MON dynstat_vvel_del2            =   7.5658086346529E-06
(PID.TID 0000.0001) %MON dynstat_wvel_max             =   2.9038075918772E-04
(PID.TID 0000.0001) %MON dynstat_wvel_min             =  -7.7584324124770E-04
(PID.TID 0000.0001) %MON dynstat_wvel_mean            =  -4.4270249907514E-10
(PID.TID 0000.0001) %MON dynstat_wvel_sd              =   1.6190885610226E-05
(PID.TID 0000.0001) %MON dynstat_wvel_del2            =   1.5832880369550E-08
(PID.TID 0000.0001) %MON dynstat_theta_max            =   3.1264825264907E+01
(PID.TID 0000.0001) %MON dynstat_theta_min            =  -2.0394038501837E+00
(PID.TID 0000.0001) %MON dynstat_theta_mean           =   3.5899544924612E+00
(PID.TID 0000.0001) %MON dynstat_theta_sd             =   4.4367439372554E+00
(PID.TID 0000.0001) %MON dynstat_theta_del2           =   8.9087468393887E-05
(PID.TID 0000.0001) %MON dynstat_salt_max             =   4.0711555495258E+01
(PID.TID 0000.0001) %MON dynstat_salt_min             =   6.9511189352643E+00
(PID.TID 0000.0001) %MON dynstat_salt_mean            =   3.4725554167692E+01
(PID.TID 0000.0001) %MON dynstat_salt_sd              =   3.7717715830547E-01
(PID.TID 0000.0001) %MON dynstat_salt_del2            =   3.7109291478635E-05
(PID.TID 0000.0001) %MON dynstat_sst_max              =   3.1264808469228E+01
(PID.TID 0000.0001) %MON dynstat_sst_min              =  -1.8123264213349E+00
(PID.TID 0000.0001) %MON dynstat_sst_mean             =   1.8426986987752E+01
(PID.TID 0000.0001) %MON dynstat_sst_sd               =   1.0322127879127E+01
(PID.TID 0000.0001) %MON dynstat_sst_del2             =   7.8750457845673E-04
(PID.TID 0000.0001) %MON dynstat_sss_max              =   3.9098139064712E+01
(PID.TID 0000.0001) %MON dynstat_sss_min              =   6.9511189352643E+00
(PID.TID 0000.0001) %MON dynstat_sss_mean             =   3.4702226578219E+01
(PID.TID 0000.0001) %MON dynstat_sss_sd               =   1.1902885696312E+00
(PID.TID 0000.0001) %MON dynstat_sss_del2             =   1.1061149145170E-03
(PID.TID 0000.0001) %MON forcing_qnet_max             =   5.8969744873047E+02
(PID.TID 0000.0001) %MON forcing_qnet_min             =  -8.5621978759766E+02
(PID.TID 0000.0001) %MON forcing_qnet_mean            =   1.2350793592467E+01
(PID.TID 0000.0001) %MON forcing_qnet_sd              =   2.1751189222474E+02
(PID.TID 0000.0001) %MON forcing_qnet_del2            =   3.0582449686065E-01
(PID.TID 0000.0001) %MON forcing_qsw_max              =   0.0000000000000E+00
(PID.TID 0000.0001) %MON forcing_qsw_min              =  -1.0895032049334E+02
(PID.TID 0000.0001) %MON forcing_qsw_mean             =  -1.6988948090160E+01
(PID.TID 0000.0001) %MON forcing_qsw_sd               =   2.9132243249338E+01
(PID.TID 0000.0001) %MON forcing_qsw_del2             =   2.0509135824826E-02
(PID.TID 0000.0001) %MON forcing_empmr_max            =   8.4920250810683E-04
(PID.TID 0000.0001) %MON forcing_empmr_min            =  -5.3629595786333E-02
(PID.TID 0000.0001) %MON forcing_empmr_mean           =  -3.0111072226115E-06
(PID.TID 0000.0001) %MON forcing_empmr_sd             =   2.4331871816395E-04
(PID.TID 0000.0001) %MON forcing_empmr_del2           =   2.5333799439612E-06
(PID.TID 0000.0001) %MON forcing_fu_max               =   1.1945989131927E+00
(PID.TID 0000.0001) %MON forcing_fu_min               =  -1.5251435637474E+00
(PID.TID 0000.0001) %MON forcing_fu_mean              =   2.8839640767079E-03
(PID.TID 0000.0001) %MON forcing_fu_sd                =   1.3062186201937E-01
(PID.TID 0000.0001) %MON forcing_fu_del2              =   1.9604923851977E-04
(PID.TID 0000.0001) %MON forcing_fv_max               =   1.2931246757507E+00
(PID.TID 0000.0001) %MON forcing_fv_min               =  -8.9977657794952E-01
(PID.TID 0000.0001) %MON forcing_fv_mean              =  -4.3503836274858E-03
(PID.TID 0000.0001) %MON forcing_fv_sd                =   1.2871447756398E-01
(PID.TID 0000.0001) %MON forcing_fv_del2              =   1.7944047452651E-04
(PID.TID 0000.0001) %MON trAdv_CFL_u_max              =   1.4121443499675E-02
(PID.TID 0000.0001) %MON trAdv_CFL_v_max              =   1.2504388071103E-02
(PID.TID 0000.0001) %MON trAdv_CFL_w_max              =   2.1859921320121E-02
(PID.TID 0000.0001) %MON advcfl_uvel_max              =   1.2398679962667E-02
(PID.TID 0000.0001) %MON advcfl_vvel_max              =   1.2620364807177E-02
(PID.TID 0000.0001) %MON advcfl_wvel_max              =   2.2529457166586E-02
(PID.TID 0000.0001) %MON advcfl_W_hf_max              =   2.3630031261913E-02
(PID.TID 0000.0001) %MON pe_b_mean                    =   5.1840327404922E-04
(PID.TID 0000.0001) %MON ke_max                       =   6.9601125268758E-01
(PID.TID 0000.0001) %MON ke_mean                      =   3.4461386667078E-04
(PID.TID 0000.0001) %MON ke_vol                       =   1.3349985738999E+18
(PID.TID 0000.0001) %MON vort_r_min                   =  -1.3746886621004E-05
(PID.TID 0000.0001) %MON vort_r_max                   =   1.7873249975910E-05
(PID.TID 0000.0001) %MON vort_a_mean                  =  -1.9727864647440E-05
(PID.TID 0000.0001) %MON vort_a_sd                    =   7.4543004757998E-05
(PID.TID 0000.0001) %MON vort_p_mean                  =  -2.1760522999547E-05
(PID.TID 0000.0001) %MON vort_p_sd                    =   9.7246314926481E-05
(PID.TID 0000.0001) %MON surfExpan_theta_mean         =   8.1912390768523E-08
(PID.TID 0000.0001) %MON surfExpan_salt_mean          =   4.3284384110425E-08
(PID.TID 0000.0001) // =======================================================
(PID.TID 0000.0001) // End MONITOR dynamic field statistics
(PID.TID 0000.0001) // =======================================================
(PID.TID 0000.0001) // =======================================================
(PID.TID 0000.0001) // Begin MONITOR SEAICE statistics
(PID.TID 0000.0001) // =======================================================
(PID.TID 0000.0001) %MON seaice_tsnumber              =                  1320
(PID.TID 0000.0001) %MON seaice_time_sec              =   1.1880000000000E+06
(PID.TID 0000.0001) %MON seaice_uice_max              =   4.0000000000000E-01
(PID.TID 0000.0001) %MON seaice_uice_min              =  -4.0000000000000E-01
(PID.TID 0000.0001) %MON seaice_uice_mean             =  -8.3054598624025E-03
(PID.TID 0000.0001) %MON seaice_uice_sd               =   1.9802383574176E-01
(PID.TID 0000.0001) %MON seaice_uice_del2             =   2.2931571122150E-04
(PID.TID 0000.0001) %MON seaice_vice_max              =   4.0000000000000E-01
(PID.TID 0000.0001) %MON seaice_vice_min              =  -4.0000000000000E-01
(PID.TID 0000.0001) %MON seaice_vice_mean             =  -2.1960776359499E-02
(PID.TID 0000.0001) %MON seaice_vice_sd               =   2.1302038025672E-01
(PID.TID 0000.0001) %MON seaice_vice_del2             =   2.3932563818061E-04
(PID.TID 0000.0001) %MON seaice_area_max              =   9.9999993853271E-01
(PID.TID 0000.0001) %MON seaice_area_min              =   0.0000000000000E+00
(PID.TID 0000.0001) %MON seaice_area_mean             =   6.3989117383528E-02
(PID.TID 0000.0001) %MON seaice_area_sd               =   2.2654471213716E-01
(PID.TID 0000.0001) %MON seaice_area_del2             =   3.6407306757150E-04
(PID.TID 0000.0001) %MON seaice_heff_max              =   2.4862391555973E+01
(PID.TID 0000.0001) %MON seaice_heff_min              =   0.0000000000000E+00
(PID.TID 0000.0001) %MON seaice_heff_mean             =   2.1094032422230E-01
(PID.TID 0000.0001) %MON seaice_heff_sd               =   1.0651776654793E+00
(PID.TID 0000.0001) %MON seaice_heff_del2             =   3.7990896779605E-03
(PID.TID 0000.0001) %MON seaice_hsnow_max             =   8.2120034088730E+00
(PID.TID 0000.0001) %MON seaice_hsnow_min             =   0.0000000000000E+00
(PID.TID 0000.0001) %MON seaice_hsnow_mean            =   2.3859964160293E-02
(PID.TID 0000.0001) %MON seaice_hsnow_sd              =   1.5565917040933E-01
(PID.TID 0000.0001) %MON seaice_hsnow_del2            =   1.2316957027229E-03
(PID.TID 0000.0001) // =======================================================
(PID.TID 0000.0001) // End MONITOR SEAICE statistics
(PID.TID 0000.0001) // =======================================================
 Computing Diagnostic #     86  oceQnet      Counter:       4   Parms: SM      U1      
 Computing Diagnostic #     87  oceQsw       Counter:       4   Parms: SM      U1      
 Computing Diagnostic #     84  oceFWflx     Counter:       4   Parms: SM      U1      
 Computing Diagnostic #     85  oceSflux     Counter:       4   Parms: SM      U1      
 Computing Diagnostic #     80  oceTAUX      Counter:       4   Parms: UU      U1      
           Vector  Mate for  oceTAUX      Diagnostic #     81  oceTAUY  exists 
 Computing Diagnostic #     81  oceTAUY      Counter:       4   Parms: VV      U1      
           Vector  Mate for  oceTAUY      Diagnostic #     80  oceTAUX  exists 
 Computing Diagnostic #     26  THETA        Counter:       4   Parms: SMR     MR      
 Computing Diagnostic #     27  SALT         Counter:       4   Parms: SMR     MR      
 Computing Diagnostic #     30  UVEL         Counter:       4   Parms: UUR     MR      
           Vector  Mate for  UVEL         Diagnostic #     31  VVEL     exists 
 Computing Diagnostic #     31  VVEL         Counter:       4   Parms: VVR     MR      
           Vector  Mate for  VVEL         Diagnostic #     30  UVEL     exists 
 Computing Diagnostic #    214  SIarea       Counter:       4   Parms: SM      M1      
 Computing Diagnostic #    217  SIheff       Counter:       4   Parms: SM      M1      
 Computing Diagnostic #    219  SIhsnow      Counter:       4   Parms: SM      M1      
 Computing Diagnostic #     83  sIceLoad     Counter:       4   Parms: SM      U1      
 Computing Diagnostic #    223  SIuice       Counter:       4   Parms: UU      M1      
           Vector  Mate for  SIuice       Diagnostic #    224  SIvice   exists 
 Computing Diagnostic #    224  SIvice       Counter:       4   Parms: VV      M1      
           Vector  Mate for  SIvice       Diagnostic #    223  SIuice   exists 
 Computing Diagnostic #    225  SItaux       Counter:       4   Parms: UU      U1      
           Vector  Mate for  SItaux       Diagnostic #    226  SItauy   exists 
 Computing Diagnostic #    226  SItauy       Counter:       4   Parms: VV      U1      
           Vector  Mate for  SItauy       Diagnostic #    225  SItaux   exists 
 Computing Diagnostic #    285  SIareaN      Counter:       4   Parms: SM      MX      
 Computing Diagnostic #    284  SIheffN      Counter:       4   Parms: SM      MX      
 Computing Diagnostic #    286  SIhsnowN     Counter:       4   Parms: SM      MX      
 Compute Stats, Diag. #    214  SIarea    vol(   0 ): 3.580E+14  Parms: SM      M1      
 Compute Stats, Diag. #    217  SIheff    vol(   0 ): 3.580E+14  Parms: SM      M1      
 Compute Stats, Diag. #    219  SIhsnow   vol(   0 ): 3.580E+14  Parms: SM      M1      
 Compute Stats, Diag. #     83  sIceLoad  vol(   0 ): 3.580E+14  Parms: SM      U1      
 Compute Stats, Diag. #    223  SIuice    vol(   0 ): 3.513E+14  Parms: UU      M1      
 Compute Stats, Diag. #    224  SIvice    vol(   0 ): 3.508E+14  Parms: VV      M1      
 Compute Stats, Diag. #    225  SItaux    vol(   0 ): 3.513E+14  Parms: UU      U1      
 Compute Stats, Diag. #    226  SItauy    vol(   0 ): 3.508E+14  Parms: VV      U1      
 cg2d: Sum(rhs),rhsMax =  -6.17154694196411E+01  2.99434454393889E-01
 Compute Stats, Diag. #    214  SIarea    vol(   0 ): 3.580E+14  Parms: SM      M1      
 Compute Stats, Diag. #    217  SIheff    vol(   0 ): 3.580E+14  Parms: SM      M1      
 Compute Stats, Diag. #    219  SIhsnow   vol(   0 ): 3.580E+14  Parms: SM      M1      
 Compute Stats, Diag. #     83  sIceLoad  vol(   0 ): 3.580E+14  Parms: SM      U1      
 Compute Stats, Diag. #    223  SIuice    vol(   0 ): 3.513E+14  Parms: UU      M1      
 Compute Stats, Diag. #    224  SIvice    vol(   0 ): 3.508E+14  Parms: VV      M1      
 Compute Stats, Diag. #    225  SItaux    vol(   0 ): 3.513E+14  Parms: UU      U1      
 Compute Stats, Diag. #    226  SItauy    vol(   0 ): 3.508E+14  Parms: VV      U1      
 cg2d: Sum(rhs),rhsMax =  -6.17982457330668E+01  2.99478053965971E-01
 Compute Stats, Diag. #    214  SIarea    vol(   0 ): 3.580E+14  Parms: SM      M1      
 Compute Stats, Diag. #    217  SIheff    vol(   0 ): 3.580E+14  Parms: SM      M1      
 Compute Stats, Diag. #    219  SIhsnow   vol(   0 ): 3.580E+14  Parms: SM      M1      
 Compute Stats, Diag. #     83  sIceLoad  vol(   0 ): 3.580E+14  Parms: SM      U1      
 Compute Stats, Diag. #    223  SIuice    vol(   0 ): 3.513E+14  Parms: UU      M1      
 Compute Stats, Diag. #    224  SIvice    vol(   0 ): 3.508E+14  Parms: VV      M1      
 Compute Stats, Diag. #    225  SItaux    vol(   0 ): 3.513E+14  Parms: UU      U1      
 Compute Stats, Diag. #    226  SItauy    vol(   0 ): 3.508E+14  Parms: VV      U1      
 cg2d: Sum(rhs),rhsMax =  -6.18796011727658E+01  2.99527679946923E-01
 Compute Stats, Diag. #    214  SIarea    vol(   0 ): 3.580E+14  Parms: SM      M1      
 Compute Stats, Diag. #    217  SIheff    vol(   0 ): 3.580E+14  Parms: SM      M1      
 Compute Stats, Diag. #    219  SIhsnow   vol(   0 ): 3.580E+14  Parms: SM      M1      
 Compute Stats, Diag. #     83  sIceLoad  vol(   0 ): 3.580E+14  Parms: SM      U1      
 Compute Stats, Diag. #    223  SIuice    vol(   0 ): 3.513E+14  Parms: UU      M1      
 Compute Stats, Diag. #    224  SIvice    vol(   0 ): 3.508E+14  Parms: VV      M1      
 Compute Stats, Diag. #    225  SItaux    vol(   0 ): 3.513E+14  Parms: UU      U1      
 Compute Stats, Diag. #    226  SItauy    vol(   0 ): 3.508E+14  Parms: VV      U1      
 cg2d: Sum(rhs),rhsMax =  -6.19634562315477E+01  2.99583181733287E-01
 Computing Diagnostic #     86  oceQnet      Counter:       4   Parms: SM      U1      
 Computing Diagnostic #     87  oceQsw       Counter:       4   Parms: SM      U1      
 Computing Diagnostic #     84  oceFWflx     Counter:       4   Parms: SM      U1      
 Computing Diagnostic #     85  oceSflux     Counter:       4   Parms: SM      U1      
 Computing Diagnostic #     80  oceTAUX      Counter:       4   Parms: UU      U1      
           Vector  Mate for  oceTAUX      Diagnostic #     81  oceTAUY  exists 
 Computing Diagnostic #     81  oceTAUY      Counter:       4   Parms: VV      U1      
           Vector  Mate for  oceTAUY      Diagnostic #     80  oceTAUX  exists 
 Computing Diagnostic #     26  THETA        Counter:       4   Parms: SMR     MR      
 Computing Diagnostic #     27  SALT         Counter:       4   Parms: SMR     MR      
 Computing Diagnostic #     30  UVEL         Counter:       4   Parms: UUR     MR      
           Vector  Mate for  UVEL         Diagnostic #     31  VVEL     exists 
 Computing Diagnostic #     31  VVEL         Counter:       4   Parms: VVR     MR      
           Vector  Mate for  VVEL         Diagnostic #     30  UVEL     exists 
 Computing Diagnostic #    214  SIarea       Counter:       4   Parms: SM      M1      
 Computing Diagnostic #    217  SIheff       Counter:       4   Parms: SM      M1      
 Computing Diagnostic #    219  SIhsnow      Counter:       4   Parms: SM      M1      
 Computing Diagnostic #     83  sIceLoad     Counter:       4   Parms: SM      U1      
 Computing Diagnostic #    223  SIuice       Counter:       4   Parms: UU      M1      
           Vector  Mate for  SIuice       Diagnostic #    224  SIvice   exists 
 Computing Diagnostic #    224  SIvice       Counter:       4   Parms: VV      M1      
           Vector  Mate for  SIvice       Diagnostic #    223  SIuice   exists 
 Computing Diagnostic #    225  SItaux       Counter:       4   Parms: UU      U1      
           Vector  Mate for  SItaux       Diagnostic #    226  SItauy   exists 
 Computing Diagnostic #    226  SItauy       Counter:       4   Parms: VV      U1      
           Vector  Mate for  SItauy       Diagnostic #    225  SItaux   exists 
 Computing Diagnostic #    285  SIareaN      Counter:       4   Parms: SM      MX      
 Computing Diagnostic #    284  SIheffN      Counter:       4   Parms: SM      MX      
 Computing Diagnostic #    286  SIhsnowN     Counter:       4   Parms: SM      MX      
 Compute Stats, Diag. #    214  SIarea    vol(   0 ): 3.580E+14  Parms: SM      M1      
 Compute Stats, Diag. #    217  SIheff    vol(   0 ): 3.580E+14  Parms: SM      M1      
 Compute Stats, Diag. #    219  SIhsnow   vol(   0 ): 3.580E+14  Parms: SM      M1      
 Compute Stats, Diag. #     83  sIceLoad  vol(   0 ): 3.580E+14  Parms: SM      U1      
 Compute Stats, Diag. #    223  SIuice    vol(   0 ): 3.513E+14  Parms: UU      M1      
 Compute Stats, Diag. #    224  SIvice    vol(   0 ): 3.508E+14  Parms: VV      M1      
 Compute Stats, Diag. #    225  SItaux    vol(   0 ): 3.513E+14  Parms: UU      U1      
 Compute Stats, Diag. #    226  SItauy    vol(   0 ): 3.508E+14  Parms: VV      U1      
 cg2d: Sum(rhs),rhsMax =  -6.20474768547651E+01  2.99644090523979E-01
 Compute Stats, Diag. #    214  SIarea    vol(   0 ): 3.580E+14  Parms: SM      M1      
 Compute Stats, Diag. #    217  SIheff    vol(   0 ): 3.580E+14  Parms: SM      M1      
 Compute Stats, Diag. #    219  SIhsnow   vol(   0 ): 3.580E+14  Parms: SM      M1      
 Compute Stats, Diag. #     83  sIceLoad  vol(   0 ): 3.580E+14  Parms: SM      U1      
 Compute Stats, Diag. #    223  SIuice    vol(   0 ): 3.513E+14  Parms: UU      M1      
 Compute Stats, Diag. #    224  SIvice    vol(   0 ): 3.508E+14  Parms: VV      M1      
 Compute Stats, Diag. #    225  SItaux    vol(   0 ): 3.513E+14  Parms: UU      U1      
 Compute Stats, Diag. #    226  SItauy    vol(   0 ): 3.508E+14  Parms: VV      U1      
 cg2d: Sum(rhs),rhsMax =  -6.21235536964377E+01  2.99718764627305E-01
 Compute Stats, Diag. #    214  SIarea    vol(   0 ): 3.580E+14  Parms: SM      M1      
 Compute Stats, Diag. #    217  SIheff    vol(   0 ): 3.580E+14  Parms: SM      M1      
 Compute Stats, Diag. #    219  SIhsnow   vol(   0 ): 3.580E+14  Parms: SM      M1      
 Compute Stats, Diag. #     83  sIceLoad  vol(   0 ): 3.580E+14  Parms: SM      U1      
 Compute Stats, Diag. #    223  SIuice    vol(   0 ): 3.513E+14  Parms: UU      M1      
 Compute Stats, Diag. #    224  SIvice    vol(   0 ): 3.508E+14  Parms: VV      M1      
 Compute Stats, Diag. #    225  SItaux    vol(   0 ): 3.513E+14  Parms: UU      U1      
 Compute Stats, Diag. #    226  SItauy    vol(   0 ): 3.508E+14  Parms: VV      U1      
 cg2d: Sum(rhs),rhsMax =  -6.22138856985035E+01  2.99798661862477E-01
 Compute Stats, Diag. #    214  SIarea    vol(   0 ): 3.580E+14  Parms: SM      M1      
 Compute Stats, Diag. #    217  SIheff    vol(   0 ): 3.580E+14  Parms: SM      M1      
 Compute Stats, Diag. #    219  SIhsnow   vol(   0 ): 3.580E+14  Parms: SM      M1      
 Compute Stats, Diag. #     83  sIceLoad  vol(   0 ): 3.580E+14  Parms: SM      U1      
 Compute Stats, Diag. #    223  SIuice    vol(   0 ): 3.513E+14  Parms: UU      M1      
 Compute Stats, Diag. #    224  SIvice    vol(   0 ): 3.508E+14  Parms: VV      M1      
 Compute Stats, Diag. #    225  SItaux    vol(   0 ): 3.513E+14  Parms: UU      U1      
 Compute Stats, Diag. #    226  SItauy    vol(   0 ): 3.508E+14  Parms: VV      U1      
 cg2d: Sum(rhs),rhsMax =  -6.23027713361926E+01  2.99880278703064E-01
(PID.TID 0000.0001)      cg2d_init_res =   3.98717098809580E-02
(PID.TID 0000.0001)      cg2d_iters(min,last) =      -1      24
(PID.TID 0000.0001)      cg2d_last_res =   2.25945867016129E-05
(PID.TID 0000.0001) // =======================================================
(PID.TID 0000.0001) // Begin MONITOR dynamic field statistics
(PID.TID 0000.0001) // =======================================================
(PID.TID 0000.0001) %MON time_tsnumber                =                  1328
(PID.TID 0000.0001) %MON time_secondsf                =   1.1952000000000E+06
(PID.TID 0000.0001) %MON dynstat_eta_max              =   1.0169352680409E+00
(PID.TID 0000.0001) %MON dynstat_eta_min              =  -1.8729469047261E+00
(PID.TID 0000.0001) %MON dynstat_eta_mean             =   1.9708356392127E-03
(PID.TID 0000.0001) %MON dynstat_eta_sd               =   6.2796539475786E-01
(PID.TID 0000.0001) %MON dynstat_eta_del2             =   5.0483624664426E-05
(PID.TID 0000.0001) %MON dynstat_uvel_max             =   6.4049988410171E-01
(PID.TID 0000.0001) %MON dynstat_uvel_min             =  -9.7496489516556E-01
(PID.TID 0000.0001) %MON dynstat_uvel_mean            =   1.3601457529159E-03
(PID.TID 0000.0001) %MON dynstat_uvel_sd              =   1.8062300670558E-02
(PID.TID 0000.0001) %MON dynstat_uvel_del2            =   7.4145117830543E-06
(PID.TID 0000.0001) %MON dynstat_vvel_max             =   6.8022195903053E-01
(PID.TID 0000.0001) %MON dynstat_vvel_min             =  -1.1274592538765E+00
(PID.TID 0000.0001) %MON dynstat_vvel_mean            =   1.1418191368153E-03
(PID.TID 0000.0001) %MON dynstat_vvel_sd              =   1.9626447494978E-02
(PID.TID 0000.0001) %MON dynstat_vvel_del2            =   7.5605528284446E-06
(PID.TID 0000.0001) %MON dynstat_wvel_max             =   2.9112174194644E-04
(PID.TID 0000.0001) %MON dynstat_wvel_min             =  -7.7654113929734E-04
(PID.TID 0000.0001) %MON dynstat_wvel_mean            =  -6.6471561571742E-10
(PID.TID 0000.0001) %MON dynstat_wvel_sd              =   1.6054408948764E-05
(PID.TID 0000.0001) %MON dynstat_wvel_del2            =   1.5968704741294E-08
(PID.TID 0000.0001) %MON dynstat_theta_max            =   3.1243769581545E+01
(PID.TID 0000.0001) %MON dynstat_theta_min            =  -2.0393961308463E+00
(PID.TID 0000.0001) %MON dynstat_theta_mean           =   3.5899510208962E+00
(PID.TID 0000.0001) %MON dynstat_theta_sd             =   4.4367477602639E+00
(PID.TID 0000.0001) %MON dynstat_theta_del2           =   8.9062264387010E-05
(PID.TID 0000.0001) %MON dynstat_salt_max             =   4.0711555871174E+01
(PID.TID 0000.0001) %MON dynstat_salt_min             =   6.8660155993638E+00
(PID.TID 0000.0001) %MON dynstat_salt_mean            =   3.4725553974510E+01
(PID.TID 0000.0001) %MON dynstat_salt_sd              =   3.7717936866880E-01
(PID.TID 0000.0001) %MON dynstat_salt_del2            =   3.7078241857410E-05
(PID.TID 0000.0001) %MON dynstat_sst_max              =   3.1243752170578E+01
(PID.TID 0000.0001) %MON dynstat_sst_min              =  -1.8130791293801E+00
(PID.TID 0000.0001) %MON dynstat_sst_mean             =   1.8428666046499E+01
(PID.TID 0000.0001) %MON dynstat_sst_sd               =   1.0323921513586E+01
(PID.TID 0000.0001) %MON dynstat_sst_del2             =   7.8631354192973E-04
(PID.TID 0000.0001) %MON dynstat_sss_max              =   3.9098129877461E+01
(PID.TID 0000.0001) %MON dynstat_sss_min              =   6.8660155993638E+00
(PID.TID 0000.0001) %MON dynstat_sss_mean             =   3.4702256538781E+01
(PID.TID 0000.0001) %MON dynstat_sss_sd               =   1.1905580065301E+00
(PID.TID 0000.0001) %MON dynstat_sss_del2             =   1.1038971244482E-03
(PID.TID 0000.0001) %MON forcing_qnet_max             =   9.2698889160156E+02
(PID.TID 0000.0001) %MON forcing_qnet_min             =  -9.6718643225363E+02
(PID.TID 0000.0001) %MON forcing_qnet_mean            =   3.9554357811594E+00
(PID.TID 0000.0001) %MON forcing_qnet_sd              =   2.0889333307040E+02
(PID.TID 0000.0001) %MON forcing_qnet_del2            =   3.0049477576370E-01
(PID.TID 0000.0001) %MON forcing_qsw_max              =   0.0000000000000E+00
(PID.TID 0000.0001) %MON forcing_qsw_min              =  -1.0862805129847E+02
(PID.TID 0000.0001) %MON forcing_qsw_mean             =  -1.8401719491334E+01
(PID.TID 0000.0001) %MON forcing_qsw_sd               =   2.7894075885010E+01
(PID.TID 0000.0001) %MON forcing_qsw_del2             =   2.0773424659934E-02
(PID.TID 0000.0001) %MON forcing_empmr_max            =   1.0427517117932E-03
(PID.TID 0000.0001) %MON forcing_empmr_min            =  -6.6921167075634E-02
(PID.TID 0000.0001) %MON forcing_empmr_mean           =  -3.2147521814693E-06
(PID.TID 0000.0001) %MON forcing_empmr_sd             =   2.9641550804034E-04
(PID.TID 0000.0001) %MON forcing_empmr_del2           =   3.0959155233045E-06
(PID.TID 0000.0001) %MON forcing_fu_max               =   1.1887463331223E+00
(PID.TID 0000.0001) %MON forcing_fu_min               =  -1.5618070960045E+00
(PID.TID 0000.0001) %MON forcing_fu_mean              =   3.2719023775252E-03
(PID.TID 0000.0001) %MON forcing_fu_sd                =   1.3096369143919E-01
(PID.TID 0000.0001) %MON forcing_fu_del2              =   1.9521896640121E-04
(PID.TID 0000.0001) %MON forcing_fv_max               =   1.2479961514473E+00
(PID.TID 0000.0001) %MON forcing_fv_min               =  -8.8358649611473E-01
(PID.TID 0000.0001) %MON forcing_fv_mean              =  -4.2632208151893E-03
(PID.TID 0000.0001) %MON forcing_fv_sd                =   1.2798860921571E-01
(PID.TID 0000.0001) %MON forcing_fv_del2              =   1.7863041590279E-04
(PID.TID 0000.0001) %MON trAdv_CFL_u_max              =   1.4118767722288E-02
(PID.TID 0000.0001) %MON trAdv_CFL_v_max              =   1.2642871494734E-02
(PID.TID 0000.0001) %MON trAdv_CFL_w_max              =   2.2559845853588E-02
(PID.TID 0000.0001) %MON advcfl_uvel_max              =   1.2483478363903E-02
(PID.TID 0000.0001) %MON advcfl_vvel_max              =   1.2700429996361E-02
(PID.TID 0000.0001) %MON advcfl_wvel_max              =   2.3757119413031E-02
(PID.TID 0000.0001) %MON advcfl_W_hf_max              =   2.3927836262595E-02
(PID.TID 0000.0001) %MON pe_b_mean                    =   5.1872090415619E-04
(PID.TID 0000.0001) %MON ke_max                       =   7.0749796316622E-01
(PID.TID 0000.0001) %MON ke_mean                      =   3.4457648207869E-04
(PID.TID 0000.0001) %MON ke_vol                       =   1.3349985815191E+18
(PID.TID 0000.0001) %MON vort_r_min                   =  -1.3551113686431E-05
(PID.TID 0000.0001) %MON vort_r_max                   =   1.8741282354768E-05
(PID.TID 0000.0001) %MON vort_a_mean                  =  -1.9727864647440E-05
(PID.TID 0000.0001) %MON vort_a_sd                    =   7.4543005560486E-05
(PID.TID 0000.0001) %MON vort_p_mean                  =  -2.1760522886944E-05
(PID.TID 0000.0001) %MON vort_p_sd                    =   9.7246276940782E-05
(PID.TID 0000.0001) %MON surfExpan_theta_mean         =   1.2003395025432E-07
(PID.TID 0000.0001) %MON surfExpan_salt_mean          =   5.0017076075260E-08
(PID.TID 0000.0001) // =======================================================
(PID.TID 0000.0001) // End MONITOR dynamic field statistics
(PID.TID 0000.0001) // =======================================================
(PID.TID 0000.0001) // =======================================================
(PID.TID 0000.0001) // Begin MONITOR SEAICE statistics
(PID.TID 0000.0001) // =======================================================
(PID.TID 0000.0001) %MON seaice_tsnumber              =                  1328
(PID.TID 0000.0001) %MON seaice_time_sec              =   1.1952000000000E+06
(PID.TID 0000.0001) %MON seaice_uice_max              =   4.0000000000000E-01
(PID.TID 0000.0001) %MON seaice_uice_min              =  -4.0000000000000E-01
(PID.TID 0000.0001) %MON seaice_uice_mean             =  -8.3054598624025E-03
(PID.TID 0000.0001) %MON seaice_uice_sd               =   1.9802383574176E-01
(PID.TID 0000.0001) %MON seaice_uice_del2             =   2.2931571122150E-04
(PID.TID 0000.0001) %MON seaice_vice_max              =   4.0000000000000E-01
(PID.TID 0000.0001) %MON seaice_vice_min              =  -4.0000000000000E-01
(PID.TID 0000.0001) %MON seaice_vice_mean             =  -2.1960776359499E-02
(PID.TID 0000.0001) %MON seaice_vice_sd               =   2.1302038025672E-01
(PID.TID 0000.0001) %MON seaice_vice_del2             =   2.3932563818061E-04
(PID.TID 0000.0001) %MON seaice_area_max              =   9.9999998707790E-01
(PID.TID 0000.0001) %MON seaice_area_min              =   0.0000000000000E+00
(PID.TID 0000.0001) %MON seaice_area_mean             =   6.3965301945065E-02
(PID.TID 0000.0001) %MON seaice_area_sd               =   2.2650802289549E-01
(PID.TID 0000.0001) %MON seaice_area_del2             =   3.6357755103470E-04
(PID.TID 0000.0001) %MON seaice_heff_max              =   2.4861133976025E+01
(PID.TID 0000.0001) %MON seaice_heff_min              =   0.0000000000000E+00
(PID.TID 0000.0001) %MON seaice_heff_mean             =   2.1092302083030E-01
(PID.TID 0000.0001) %MON seaice_heff_sd               =   1.0651685349508E+00
(PID.TID 0000.0001) %MON seaice_heff_del2             =   3.7985556128532E-03
(PID.TID 0000.0001) %MON seaice_hsnow_max             =   8.2115830829716E+00
(PID.TID 0000.0001) %MON seaice_hsnow_min             =   0.0000000000000E+00
(PID.TID 0000.0001) %MON seaice_hsnow_mean            =   2.3858244611525E-02
(PID.TID 0000.0001) %MON seaice_hsnow_sd              =   1.5566074529272E-01
(PID.TID 0000.0001) %MON seaice_hsnow_del2            =   1.2316227664835E-03
(PID.TID 0000.0001) // =======================================================
(PID.TID 0000.0001) // End MONITOR SEAICE statistics
(PID.TID 0000.0001) // =======================================================
 Computing Diagnostic #     86  oceQnet      Counter:       4   Parms: SM      U1      
 Computing Diagnostic #     87  oceQsw       Counter:       4   Parms: SM      U1      
 Computing Diagnostic #     84  oceFWflx     Counter:       4   Parms: SM      U1      
 Computing Diagnostic #     85  oceSflux     Counter:       4   Parms: SM      U1      
 Computing Diagnostic #     80  oceTAUX      Counter:       4   Parms: UU      U1      
           Vector  Mate for  oceTAUX      Diagnostic #     81  oceTAUY  exists 
 Computing Diagnostic #     81  oceTAUY      Counter:       4   Parms: VV      U1      
           Vector  Mate for  oceTAUY      Diagnostic #     80  oceTAUX  exists 
 Computing Diagnostic #     26  THETA        Counter:       4   Parms: SMR     MR      
 Computing Diagnostic #     27  SALT         Counter:       4   Parms: SMR     MR      
 Computing Diagnostic #     30  UVEL         Counter:       4   Parms: UUR     MR      
           Vector  Mate for  UVEL         Diagnostic #     31  VVEL     exists 
 Computing Diagnostic #     31  VVEL         Counter:       4   Parms: VVR     MR      
           Vector  Mate for  VVEL         Diagnostic #     30  UVEL     exists 
 Computing Diagnostic #    214  SIarea       Counter:       4   Parms: SM      M1      
 Computing Diagnostic #    217  SIheff       Counter:       4   Parms: SM      M1      
 Computing Diagnostic #    219  SIhsnow      Counter:       4   Parms: SM      M1      
 Computing Diagnostic #     83  sIceLoad     Counter:       4   Parms: SM      U1      
 Computing Diagnostic #    223  SIuice       Counter:       4   Parms: UU      M1      
           Vector  Mate for  SIuice       Diagnostic #    224  SIvice   exists 
 Computing Diagnostic #    224  SIvice       Counter:       4   Parms: VV      M1      
           Vector  Mate for  SIvice       Diagnostic #    223  SIuice   exists 
 Computing Diagnostic #    225  SItaux       Counter:       4   Parms: UU      U1      
           Vector  Mate for  SItaux       Diagnostic #    226  SItauy   exists 
 Computing Diagnostic #    226  SItauy       Counter:       4   Parms: VV      U1      
           Vector  Mate for  SItauy       Diagnostic #    225  SItaux   exists 
 Computing Diagnostic #    285  SIareaN      Counter:       4   Parms: SM      MX      
 Computing Diagnostic #    284  SIheffN      Counter:       4   Parms: SM      MX      
 Computing Diagnostic #    286  SIhsnowN     Counter:       4   Parms: SM      MX      
 Compute Stats, Diag. #    214  SIarea    vol(   0 ): 3.580E+14  Parms: SM      M1      
 Compute Stats, Diag. #    217  SIheff    vol(   0 ): 3.580E+14  Parms: SM      M1      
 Compute Stats, Diag. #    219  SIhsnow   vol(   0 ): 3.580E+14  Parms: SM      M1      
 Compute Stats, Diag. #     83  sIceLoad  vol(   0 ): 3.580E+14  Parms: SM      U1      
 Compute Stats, Diag. #    223  SIuice    vol(   0 ): 3.513E+14  Parms: UU      M1      
 Compute Stats, Diag. #    224  SIvice    vol(   0 ): 3.508E+14  Parms: VV      M1      
 Compute Stats, Diag. #    225  SItaux    vol(   0 ): 3.513E+14  Parms: UU      U1      
 Compute Stats, Diag. #    226  SItauy    vol(   0 ): 3.508E+14  Parms: VV      U1      
 cg2d: Sum(rhs),rhsMax =  -6.23910379135886E+01  2.99963588426858E-01
 Compute Stats, Diag. #    214  SIarea    vol(   0 ): 3.580E+14  Parms: SM      M1      
 Compute Stats, Diag. #    217  SIheff    vol(   0 ): 3.580E+14  Parms: SM      M1      
 Compute Stats, Diag. #    219  SIhsnow   vol(   0 ): 3.580E+14  Parms: SM      M1      
 Compute Stats, Diag. #     83  sIceLoad  vol(   0 ): 3.580E+14  Parms: SM      U1      
 Compute Stats, Diag. #    223  SIuice    vol(   0 ): 3.513E+14  Parms: UU      M1      
 Compute Stats, Diag. #    224  SIvice    vol(   0 ): 3.508E+14  Parms: VV      M1      
 Compute Stats, Diag. #    225  SItaux    vol(   0 ): 3.513E+14  Parms: UU      U1      
 Compute Stats, Diag. #    226  SItauy    vol(   0 ): 3.508E+14  Parms: VV      U1      
 cg2d: Sum(rhs),rhsMax =  -6.24884075272654E+01  3.00047978501653E-01
 Compute Stats, Diag. #    214  SIarea    vol(   0 ): 3.580E+14  Parms: SM      M1      
 Compute Stats, Diag. #    217  SIheff    vol(   0 ): 3.580E+14  Parms: SM      M1      
 Compute Stats, Diag. #    219  SIhsnow   vol(   0 ): 3.580E+14  Parms: SM      M1      
 Compute Stats, Diag. #     83  sIceLoad  vol(   0 ): 3.580E+14  Parms: SM      U1      
 Compute Stats, Diag. #    223  SIuice    vol(   0 ): 3.513E+14  Parms: UU      M1      
 Compute Stats, Diag. #    224  SIvice    vol(   0 ): 3.508E+14  Parms: VV      M1      
 Compute Stats, Diag. #    225  SItaux    vol(   0 ): 3.513E+14  Parms: UU      U1      
 Compute Stats, Diag. #    226  SItauy    vol(   0 ): 3.508E+14  Parms: VV      U1      
 cg2d: Sum(rhs),rhsMax =  -6.25824778597441E+01  3.00133019274171E-01
 Compute Stats, Diag. #    214  SIarea    vol(   0 ): 3.580E+14  Parms: SM      M1      
 Compute Stats, Diag. #    217  SIheff    vol(   0 ): 3.580E+14  Parms: SM      M1      
 Compute Stats, Diag. #    219  SIhsnow   vol(   0 ): 3.580E+14  Parms: SM      M1      
 Compute Stats, Diag. #     83  sIceLoad  vol(   0 ): 3.580E+14  Parms: SM      U1      
 Compute Stats, Diag. #    223  SIuice    vol(   0 ): 3.513E+14  Parms: UU      M1      
 Compute Stats, Diag. #    224  SIvice    vol(   0 ): 3.508E+14  Parms: VV      M1      
 Compute Stats, Diag. #    225  SItaux    vol(   0 ): 3.513E+14  Parms: UU      U1      
 Compute Stats, Diag. #    226  SItauy    vol(   0 ): 3.508E+14  Parms: VV      U1      
 cg2d: Sum(rhs),rhsMax =  -6.26832307328598E+01  3.00218567164158E-01
 Computing Diagnostic #     86  oceQnet      Counter:       4   Parms: SM      U1      
 Computing Diagnostic #     87  oceQsw       Counter:       4   Parms: SM      U1      
 Computing Diagnostic #     84  oceFWflx     Counter:       4   Parms: SM      U1      
 Computing Diagnostic #     85  oceSflux     Counter:       4   Parms: SM      U1      
 Computing Diagnostic #     80  oceTAUX      Counter:       4   Parms: UU      U1      
           Vector  Mate for  oceTAUX      Diagnostic #     81  oceTAUY  exists 
 Computing Diagnostic #     81  oceTAUY      Counter:       4   Parms: VV      U1      
           Vector  Mate for  oceTAUY      Diagnostic #     80  oceTAUX  exists 
 Computing Diagnostic #     26  THETA        Counter:       4   Parms: SMR     MR      
 Computing Diagnostic #     27  SALT         Counter:       4   Parms: SMR     MR      
 Computing Diagnostic #     30  UVEL         Counter:       4   Parms: UUR     MR      
           Vector  Mate for  UVEL         Diagnostic #     31  VVEL     exists 
 Computing Diagnostic #     31  VVEL         Counter:       4   Parms: VVR     MR      
           Vector  Mate for  VVEL         Diagnostic #     30  UVEL     exists 
 Computing Diagnostic #    214  SIarea       Counter:       4   Parms: SM      M1      
 Computing Diagnostic #    217  SIheff       Counter:       4   Parms: SM      M1      
 Computing Diagnostic #    219  SIhsnow      Counter:       4   Parms: SM      M1      
 Computing Diagnostic #     83  sIceLoad     Counter:       4   Parms: SM      U1      
 Computing Diagnostic #    223  SIuice       Counter:       4   Parms: UU      M1      
           Vector  Mate for  SIuice       Diagnostic #    224  SIvice   exists 
 Computing Diagnostic #    224  SIvice       Counter:       4   Parms: VV      M1      
           Vector  Mate for  SIvice       Diagnostic #    223  SIuice   exists 
 Computing Diagnostic #    225  SItaux       Counter:       4   Parms: UU      U1      
           Vector  Mate for  SItaux       Diagnostic #    226  SItauy   exists 
 Computing Diagnostic #    226  SItauy       Counter:       4   Parms: VV      U1      
           Vector  Mate for  SItauy       Diagnostic #    225  SItaux   exists 
 Computing Diagnostic #    285  SIareaN      Counter:       4   Parms: SM      MX      
 Computing Diagnostic #    284  SIheffN      Counter:       4   Parms: SM      MX      
 Computing Diagnostic #    286  SIhsnowN     Counter:       4   Parms: SM      MX      
 Compute Stats, Diag. #    214  SIarea    vol(   0 ): 3.580E+14  Parms: SM      M1      
 Compute Stats, Diag. #    217  SIheff    vol(   0 ): 3.580E+14  Parms: SM      M1      
 Compute Stats, Diag. #    219  SIhsnow   vol(   0 ): 3.580E+14  Parms: SM      M1      
 Compute Stats, Diag. #     83  sIceLoad  vol(   0 ): 3.580E+14  Parms: SM      U1      
 Compute Stats, Diag. #    223  SIuice    vol(   0 ): 3.513E+14  Parms: UU      M1      
 Compute Stats, Diag. #    224  SIvice    vol(   0 ): 3.508E+14  Parms: VV      M1      
 Compute Stats, Diag. #    225  SItaux    vol(   0 ): 3.513E+14  Parms: UU      U1      
 Compute Stats, Diag. #    226  SItauy    vol(   0 ): 3.508E+14  Parms: VV      U1      
 cg2d: Sum(rhs),rhsMax =  -6.27872936676826E+01  3.00303646642759E-01
 Compute Stats, Diag. #    214  SIarea    vol(   0 ): 3.580E+14  Parms: SM      M1      
 Compute Stats, Diag. #    217  SIheff    vol(   0 ): 3.580E+14  Parms: SM      M1      
 Compute Stats, Diag. #    219  SIhsnow   vol(   0 ): 3.580E+14  Parms: SM      M1      
 Compute Stats, Diag. #     83  sIceLoad  vol(   0 ): 3.580E+14  Parms: SM      U1      
 Compute Stats, Diag. #    223  SIuice    vol(   0 ): 3.513E+14  Parms: UU      M1      
 Compute Stats, Diag. #    224  SIvice    vol(   0 ): 3.508E+14  Parms: VV      M1      
 Compute Stats, Diag. #    225  SItaux    vol(   0 ): 3.513E+14  Parms: UU      U1      
 Compute Stats, Diag. #    226  SItauy    vol(   0 ): 3.508E+14  Parms: VV      U1      
 cg2d: Sum(rhs),rhsMax =  -6.28860345321199E+01  3.00387396591162E-01
 Compute Stats, Diag. #    214  SIarea    vol(   0 ): 3.580E+14  Parms: SM      M1      
 Compute Stats, Diag. #    217  SIheff    vol(   0 ): 3.580E+14  Parms: SM      M1      
 Compute Stats, Diag. #    219  SIhsnow   vol(   0 ): 3.580E+14  Parms: SM      M1      
 Compute Stats, Diag. #     83  sIceLoad  vol(   0 ): 3.580E+14  Parms: SM      U1      
 Compute Stats, Diag. #    223  SIuice    vol(   0 ): 3.513E+14  Parms: UU      M1      
 Compute Stats, Diag. #    224  SIvice    vol(   0 ): 3.508E+14  Parms: VV      M1      
 Compute Stats, Diag. #    225  SItaux    vol(   0 ): 3.513E+14  Parms: UU      U1      
 Compute Stats, Diag. #    226  SItauy    vol(   0 ): 3.508E+14  Parms: VV      U1      
 cg2d: Sum(rhs),rhsMax =  -6.29755800714054E+01  3.00470124360836E-01
 Compute Stats, Diag. #    214  SIarea    vol(   0 ): 3.580E+14  Parms: SM      M1      
 Compute Stats, Diag. #    217  SIheff    vol(   0 ): 3.580E+14  Parms: SM      M1      
 Compute Stats, Diag. #    219  SIhsnow   vol(   0 ): 3.580E+14  Parms: SM      M1      
 Compute Stats, Diag. #     83  sIceLoad  vol(   0 ): 3.580E+14  Parms: SM      U1      
 Compute Stats, Diag. #    223  SIuice    vol(   0 ): 3.513E+14  Parms: UU      M1      
 Compute Stats, Diag. #    224  SIvice    vol(   0 ): 3.508E+14  Parms: VV      M1      
 Compute Stats, Diag. #    225  SItaux    vol(   0 ): 3.513E+14  Parms: UU      U1      
 Compute Stats, Diag. #    226  SItauy    vol(   0 ): 3.508E+14  Parms: VV      U1      
 cg2d: Sum(rhs),rhsMax =  -6.30703318065047E+01  3.00550781890883E-01
(PID.TID 0000.0001)      cg2d_init_res =   4.01463713590729E-02
(PID.TID 0000.0001)      cg2d_iters(min,last) =      -1      23
(PID.TID 0000.0001)      cg2d_last_res =   2.48095752275080E-05
(PID.TID 0000.0001) // =======================================================
(PID.TID 0000.0001) // Begin MONITOR dynamic field statistics
(PID.TID 0000.0001) // =======================================================
(PID.TID 0000.0001) %MON time_tsnumber                =                  1336
(PID.TID 0000.0001) %MON time_secondsf                =   1.2024000000000E+06
(PID.TID 0000.0001) %MON dynstat_eta_max              =   1.0161277342141E+00
(PID.TID 0000.0001) %MON dynstat_eta_min              =  -1.8759671490709E+00
(PID.TID 0000.0001) %MON dynstat_eta_mean             =   1.9951160283142E-03
(PID.TID 0000.0001) %MON dynstat_eta_sd               =   6.2817893155252E-01
(PID.TID 0000.0001) %MON dynstat_eta_del2             =   5.0522688087666E-05
(PID.TID 0000.0001) %MON dynstat_uvel_max             =   6.4172744895907E-01
(PID.TID 0000.0001) %MON dynstat_uvel_min             =  -9.8567527551783E-01
(PID.TID 0000.0001) %MON dynstat_uvel_mean            =   1.3586325829049E-03
(PID.TID 0000.0001) %MON dynstat_uvel_sd              =   1.8064459646916E-02
(PID.TID 0000.0001) %MON dynstat_uvel_del2            =   7.4112087776279E-06
(PID.TID 0000.0001) %MON dynstat_vvel_max             =   6.7966537591414E-01
(PID.TID 0000.0001) %MON dynstat_vvel_min             =  -1.1349242034006E+00
(PID.TID 0000.0001) %MON dynstat_vvel_mean            =   1.1407866663628E-03
(PID.TID 0000.0001) %MON dynstat_vvel_sd              =   1.9619093525501E-02
(PID.TID 0000.0001) %MON dynstat_vvel_del2            =   7.5434384803822E-06
(PID.TID 0000.0001) %MON dynstat_wvel_max             =   2.9187361370644E-04
(PID.TID 0000.0001) %MON dynstat_wvel_min             =  -7.7686274823092E-04
(PID.TID 0000.0001) %MON dynstat_wvel_mean            =  -1.3049908354381E-09
(PID.TID 0000.0001) %MON dynstat_wvel_sd              =   1.5942942336073E-05
(PID.TID 0000.0001) %MON dynstat_wvel_del2            =   1.6042098910392E-08
(PID.TID 0000.0001) %MON dynstat_theta_max            =   3.1222237368046E+01
(PID.TID 0000.0001) %MON dynstat_theta_min            =  -2.0393882051682E+00
(PID.TID 0000.0001) %MON dynstat_theta_mean           =   3.5899506681962E+00
(PID.TID 0000.0001) %MON dynstat_theta_sd             =   4.4367670930163E+00
(PID.TID 0000.0001) %MON dynstat_theta_del2           =   8.9034142479828E-05
(PID.TID 0000.0001) %MON dynstat_salt_max             =   4.0711556138155E+01
(PID.TID 0000.0001) %MON dynstat_salt_min             =   6.6375047194448E+00
(PID.TID 0000.0001) %MON dynstat_salt_mean            =   3.4725553748737E+01
(PID.TID 0000.0001) %MON dynstat_salt_sd              =   3.7718321345716E-01
(PID.TID 0000.0001) %MON dynstat_salt_del2            =   3.7135322711053E-05
(PID.TID 0000.0001) %MON dynstat_sst_max              =   3.1222219304171E+01
(PID.TID 0000.0001) %MON dynstat_sst_min              =  -1.8119698337548E+00
(PID.TID 0000.0001) %MON dynstat_sst_mean             =   1.8430521449924E+01
(PID.TID 0000.0001) %MON dynstat_sst_sd               =   1.0325908349727E+01
(PID.TID 0000.0001) %MON dynstat_sst_del2             =   7.8548128146155E-04
(PID.TID 0000.0001) %MON dynstat_sss_max              =   3.9098132442316E+01
(PID.TID 0000.0001) %MON dynstat_sss_min              =   6.6375047194448E+00
(PID.TID 0000.0001) %MON dynstat_sss_mean             =   3.4702288491713E+01
(PID.TID 0000.0001) %MON dynstat_sss_sd               =   1.1909875216896E+00
(PID.TID 0000.0001) %MON dynstat_sss_del2             =   1.1066161219491E-03
(PID.TID 0000.0001) %MON forcing_qnet_max             =   1.1365412597656E+03
(PID.TID 0000.0001) %MON forcing_qnet_min             =  -1.0069505615234E+03
(PID.TID 0000.0001) %MON forcing_qnet_mean            =  -1.8650346004890E+00
(PID.TID 0000.0001) %MON forcing_qnet_sd              =   2.0048445737709E+02
(PID.TID 0000.0001) %MON forcing_qnet_del2            =   3.1489509329507E-01
(PID.TID 0000.0001) %MON forcing_qsw_max              =   0.0000000000000E+00
(PID.TID 0000.0001) %MON forcing_qsw_min              =  -1.0823864645665E+02
(PID.TID 0000.0001) %MON forcing_qsw_mean             =  -1.9761747897646E+01
(PID.TID 0000.0001) %MON forcing_qsw_sd               =   2.8783869643958E+01
(PID.TID 0000.0001) %MON forcing_qsw_del2             =   2.0449305814253E-02
(PID.TID 0000.0001) %MON forcing_empmr_max            =   1.2802463024855E-03
(PID.TID 0000.0001) %MON forcing_empmr_min            =  -8.1379696726799E-02
(PID.TID 0000.0001) %MON forcing_empmr_mean           =  -3.4269129976367E-06
(PID.TID 0000.0001) %MON forcing_empmr_sd             =   3.6907549022324E-04
(PID.TID 0000.0001) %MON forcing_empmr_del2           =   3.9137020788670E-06
(PID.TID 0000.0001) %MON forcing_fu_max               =   1.1020813584328E+00
(PID.TID 0000.0001) %MON forcing_fu_min               =  -1.5231276154518E+00
(PID.TID 0000.0001) %MON forcing_fu_mean              =   3.8203455508581E-03
(PID.TID 0000.0001) %MON forcing_fu_sd                =   1.3027516669110E-01
(PID.TID 0000.0001) %MON forcing_fu_del2              =   1.9002817944880E-04
(PID.TID 0000.0001) %MON forcing_fv_max               =   1.1792068481445E+00
(PID.TID 0000.0001) %MON forcing_fv_min               =  -1.0418848922200E+00
(PID.TID 0000.0001) %MON forcing_fv_mean              =  -4.5243624072456E-03
(PID.TID 0000.0001) %MON forcing_fv_sd                =   1.2769462284770E-01
(PID.TID 0000.0001) %MON forcing_fv_del2              =   1.7807165014991E-04
(PID.TID 0000.0001) %MON trAdv_CFL_u_max              =   1.3969667185089E-02
(PID.TID 0000.0001) %MON trAdv_CFL_v_max              =   1.2667011456889E-02
(PID.TID 0000.0001) %MON trAdv_CFL_w_max              =   2.2386707503028E-02
(PID.TID 0000.0001) %MON advcfl_uvel_max              =   1.2549847341063E-02
(PID.TID 0000.0001) %MON advcfl_vvel_max              =   1.2732805440014E-02
(PID.TID 0000.0001) %MON advcfl_wvel_max              =   2.2856304252436E-02
(PID.TID 0000.0001) %MON advcfl_W_hf_max              =   2.3437999556078E-02
(PID.TID 0000.0001) %MON pe_b_mean                    =   5.1907386137187E-04
(PID.TID 0000.0001) %MON ke_max                       =   7.1702775643385E-01
(PID.TID 0000.0001) %MON ke_mean                      =   3.4447177474508E-04
(PID.TID 0000.0001) %MON ke_vol                       =   1.3349985901454E+18
(PID.TID 0000.0001) %MON vort_r_min                   =  -1.4091453181222E-05
(PID.TID 0000.0001) %MON vort_r_max                   =   1.9395680030147E-05
(PID.TID 0000.0001) %MON vort_a_mean                  =  -1.9727864647440E-05
(PID.TID 0000.0001) %MON vort_a_sd                    =   7.4543004602208E-05
(PID.TID 0000.0001) %MON vort_p_mean                  =  -2.1760522765629E-05
(PID.TID 0000.0001) %MON vort_p_sd                    =   9.7246225054861E-05
(PID.TID 0000.0001) %MON surfExpan_theta_mean         =   1.4413917068204E-07
(PID.TID 0000.0001) %MON surfExpan_salt_mean          =   6.2961857168818E-08
(PID.TID 0000.0001) // =======================================================
(PID.TID 0000.0001) // End MONITOR dynamic field statistics
(PID.TID 0000.0001) // =======================================================
(PID.TID 0000.0001) // =======================================================
(PID.TID 0000.0001) // Begin MONITOR SEAICE statistics
(PID.TID 0000.0001) // =======================================================
(PID.TID 0000.0001) %MON seaice_tsnumber              =                  1336
(PID.TID 0000.0001) %MON seaice_time_sec              =   1.2024000000000E+06
(PID.TID 0000.0001) %MON seaice_uice_max              =   4.0000000000000E-01
(PID.TID 0000.0001) %MON seaice_uice_min              =  -4.0000000000000E-01
(PID.TID 0000.0001) %MON seaice_uice_mean             =  -8.3054598624025E-03
(PID.TID 0000.0001) %MON seaice_uice_sd               =   1.9802383574176E-01
(PID.TID 0000.0001) %MON seaice_uice_del2             =   2.2931571122150E-04
(PID.TID 0000.0001) %MON seaice_vice_max              =   4.0000000000000E-01
(PID.TID 0000.0001) %MON seaice_vice_min              =  -4.0000000000000E-01
(PID.TID 0000.0001) %MON seaice_vice_mean             =  -2.1960776359499E-02
(PID.TID 0000.0001) %MON seaice_vice_sd               =   2.1302038025672E-01
(PID.TID 0000.0001) %MON seaice_vice_del2             =   2.3932563818061E-04
(PID.TID 0000.0001) %MON seaice_area_max              =   9.9999999272404E-01
(PID.TID 0000.0001) %MON seaice_area_min              =   0.0000000000000E+00
(PID.TID 0000.0001) %MON seaice_area_mean             =   6.3943042024072E-02
(PID.TID 0000.0001) %MON seaice_area_sd               =   2.2647384742351E-01
(PID.TID 0000.0001) %MON seaice_area_del2             =   3.6309955291904E-04
(PID.TID 0000.0001) %MON seaice_heff_max              =   2.4859874596179E+01
(PID.TID 0000.0001) %MON seaice_heff_min              =   0.0000000000000E+00
(PID.TID 0000.0001) %MON seaice_heff_mean             =   2.1090595729866E-01
(PID.TID 0000.0001) %MON seaice_heff_sd               =   1.0651595150278E+00
(PID.TID 0000.0001) %MON seaice_heff_del2             =   3.7980286725331E-03
(PID.TID 0000.0001) %MON seaice_hsnow_max             =   8.2111618716153E+00
(PID.TID 0000.0001) %MON seaice_hsnow_min             =   0.0000000000000E+00
(PID.TID 0000.0001) %MON seaice_hsnow_mean            =   2.3855405468800E-02
(PID.TID 0000.0001) %MON seaice_hsnow_sd              =   1.5566169781746E-01
(PID.TID 0000.0001) %MON seaice_hsnow_del2            =   1.2315465295881E-03
(PID.TID 0000.0001) // =======================================================
(PID.TID 0000.0001) // End MONITOR SEAICE statistics
(PID.TID 0000.0001) // =======================================================
 Computing Diagnostic #     86  oceQnet      Counter:       4   Parms: SM      U1      
 Computing Diagnostic #     87  oceQsw       Counter:       4   Parms: SM      U1      
 Computing Diagnostic #     84  oceFWflx     Counter:       4   Parms: SM      U1      
 Computing Diagnostic #     85  oceSflux     Counter:       4   Parms: SM      U1      
 Computing Diagnostic #     80  oceTAUX      Counter:       4   Parms: UU      U1      
           Vector  Mate for  oceTAUX      Diagnostic #     81  oceTAUY  exists 
 Computing Diagnostic #     81  oceTAUY      Counter:       4   Parms: VV      U1      
           Vector  Mate for  oceTAUY      Diagnostic #     80  oceTAUX  exists 
 Computing Diagnostic #     26  THETA        Counter:       4   Parms: SMR     MR      
 Computing Diagnostic #     27  SALT         Counter:       4   Parms: SMR     MR      
 Computing Diagnostic #     30  UVEL         Counter:       4   Parms: UUR     MR      
           Vector  Mate for  UVEL         Diagnostic #     31  VVEL     exists 
 Computing Diagnostic #     31  VVEL         Counter:       4   Parms: VVR     MR      
           Vector  Mate for  VVEL         Diagnostic #     30  UVEL     exists 
 Computing Diagnostic #    214  SIarea       Counter:       4   Parms: SM      M1      
 Computing Diagnostic #    217  SIheff       Counter:       4   Parms: SM      M1      
 Computing Diagnostic #    219  SIhsnow      Counter:       4   Parms: SM      M1      
 Computing Diagnostic #     83  sIceLoad     Counter:       4   Parms: SM      U1      
 Computing Diagnostic #    223  SIuice       Counter:       4   Parms: UU      M1      
           Vector  Mate for  SIuice       Diagnostic #    224  SIvice   exists 
 Computing Diagnostic #    224  SIvice       Counter:       4   Parms: VV      M1      
           Vector  Mate for  SIvice       Diagnostic #    223  SIuice   exists 
 Computing Diagnostic #    225  SItaux       Counter:       4   Parms: UU      U1      
           Vector  Mate for  SItaux       Diagnostic #    226  SItauy   exists 
 Computing Diagnostic #    226  SItauy       Counter:       4   Parms: VV      U1      
           Vector  Mate for  SItauy       Diagnostic #    225  SItaux   exists 
 Computing Diagnostic #    285  SIareaN      Counter:       4   Parms: SM      MX      
 Computing Diagnostic #    284  SIheffN      Counter:       4   Parms: SM      MX      
 Computing Diagnostic #    286  SIhsnowN     Counter:       4   Parms: SM      MX      
 Compute Stats, Diag. #    214  SIarea    vol(   0 ): 3.580E+14  Parms: SM      M1      
 Compute Stats, Diag. #    217  SIheff    vol(   0 ): 3.580E+14  Parms: SM      M1      
 Compute Stats, Diag. #    219  SIhsnow   vol(   0 ): 3.580E+14  Parms: SM      M1      
 Compute Stats, Diag. #     83  sIceLoad  vol(   0 ): 3.580E+14  Parms: SM      U1      
 Compute Stats, Diag. #    223  SIuice    vol(   0 ): 3.513E+14  Parms: UU      M1      
 Compute Stats, Diag. #    224  SIvice    vol(   0 ): 3.508E+14  Parms: VV      M1      
 Compute Stats, Diag. #    225  SItaux    vol(   0 ): 3.513E+14  Parms: UU      U1      
 Compute Stats, Diag. #    226  SItauy    vol(   0 ): 3.508E+14  Parms: VV      U1      
 cg2d: Sum(rhs),rhsMax =  -6.31665989862974E+01  3.00625000628077E-01
 Compute Stats, Diag. #    214  SIarea    vol(   0 ): 3.580E+14  Parms: SM      M1      
 Compute Stats, Diag. #    217  SIheff    vol(   0 ): 3.580E+14  Parms: SM      M1      
 Compute Stats, Diag. #    219  SIhsnow   vol(   0 ): 3.580E+14  Parms: SM      M1      
 Compute Stats, Diag. #     83  sIceLoad  vol(   0 ): 3.580E+14  Parms: SM      U1      
 Compute Stats, Diag. #    223  SIuice    vol(   0 ): 3.513E+14  Parms: UU      M1      
 Compute Stats, Diag. #    224  SIvice    vol(   0 ): 3.508E+14  Parms: VV      M1      
 Compute Stats, Diag. #    225  SItaux    vol(   0 ): 3.513E+14  Parms: UU      U1      
 Compute Stats, Diag. #    226  SItauy    vol(   0 ): 3.508E+14  Parms: VV      U1      
 cg2d: Sum(rhs),rhsMax =  -6.32423216299264E+01  3.00703916210388E-01
 Compute Stats, Diag. #    214  SIarea    vol(   0 ): 3.580E+14  Parms: SM      M1      
 Compute Stats, Diag. #    217  SIheff    vol(   0 ): 3.580E+14  Parms: SM      M1      
 Compute Stats, Diag. #    219  SIhsnow   vol(   0 ): 3.580E+14  Parms: SM      M1      
 Compute Stats, Diag. #     83  sIceLoad  vol(   0 ): 3.580E+14  Parms: SM      U1      
 Compute Stats, Diag. #    223  SIuice    vol(   0 ): 3.513E+14  Parms: UU      M1      
 Compute Stats, Diag. #    224  SIvice    vol(   0 ): 3.508E+14  Parms: VV      M1      
 Compute Stats, Diag. #    225  SItaux    vol(   0 ): 3.513E+14  Parms: UU      U1      
 Compute Stats, Diag. #    226  SItauy    vol(   0 ): 3.508E+14  Parms: VV      U1      
 cg2d: Sum(rhs),rhsMax =  -6.33185523284675E+01  3.00784935401266E-01
 Compute Stats, Diag. #    214  SIarea    vol(   0 ): 3.580E+14  Parms: SM      M1      
 Compute Stats, Diag. #    217  SIheff    vol(   0 ): 3.580E+14  Parms: SM      M1      
 Compute Stats, Diag. #    219  SIhsnow   vol(   0 ): 3.580E+14  Parms: SM      M1      
 Compute Stats, Diag. #     83  sIceLoad  vol(   0 ): 3.580E+14  Parms: SM      U1      
 Compute Stats, Diag. #    223  SIuice    vol(   0 ): 3.513E+14  Parms: UU      M1      
 Compute Stats, Diag. #    224  SIvice    vol(   0 ): 3.508E+14  Parms: VV      M1      
 Compute Stats, Diag. #    225  SItaux    vol(   0 ): 3.513E+14  Parms: UU      U1      
 Compute Stats, Diag. #    226  SItauy    vol(   0 ): 3.508E+14  Parms: VV      U1      
 cg2d: Sum(rhs),rhsMax =  -6.33923095303846E+01  3.00863453554821E-01
 Computing Diagnostic #     86  oceQnet      Counter:       4   Parms: SM      U1      
 Computing Diagnostic #     87  oceQsw       Counter:       4   Parms: SM      U1      
 Computing Diagnostic #     84  oceFWflx     Counter:       4   Parms: SM      U1      
 Computing Diagnostic #     85  oceSflux     Counter:       4   Parms: SM      U1      
 Computing Diagnostic #     80  oceTAUX      Counter:       4   Parms: UU      U1      
           Vector  Mate for  oceTAUX      Diagnostic #     81  oceTAUY  exists 
 Computing Diagnostic #     81  oceTAUY      Counter:       4   Parms: VV      U1      
           Vector  Mate for  oceTAUY      Diagnostic #     80  oceTAUX  exists 
 Computing Diagnostic #     26  THETA        Counter:       4   Parms: SMR     MR      
 Computing Diagnostic #     27  SALT         Counter:       4   Parms: SMR     MR      
 Computing Diagnostic #     30  UVEL         Counter:       4   Parms: UUR     MR      
           Vector  Mate for  UVEL         Diagnostic #     31  VVEL     exists 
 Computing Diagnostic #     31  VVEL         Counter:       4   Parms: VVR     MR      
           Vector  Mate for  VVEL         Diagnostic #     30  UVEL     exists 
 Computing Diagnostic #    214  SIarea       Counter:       4   Parms: SM      M1      
 Computing Diagnostic #    217  SIheff       Counter:       4   Parms: SM      M1      
 Computing Diagnostic #    219  SIhsnow      Counter:       4   Parms: SM      M1      
 Computing Diagnostic #     83  sIceLoad     Counter:       4   Parms: SM      U1      
 Computing Diagnostic #    223  SIuice       Counter:       4   Parms: UU      M1      
           Vector  Mate for  SIuice       Diagnostic #    224  SIvice   exists 
 Computing Diagnostic #    224  SIvice       Counter:       4   Parms: VV      M1      
           Vector  Mate for  SIvice       Diagnostic #    223  SIuice   exists 
 Computing Diagnostic #    225  SItaux       Counter:       4   Parms: UU      U1      
           Vector  Mate for  SItaux       Diagnostic #    226  SItauy   exists 
 Computing Diagnostic #    226  SItauy       Counter:       4   Parms: VV      U1      
           Vector  Mate for  SItauy       Diagnostic #    225  SItaux   exists 
 Computing Diagnostic #    285  SIareaN      Counter:       4   Parms: SM      MX      
 Computing Diagnostic #    284  SIheffN      Counter:       4   Parms: SM      MX      
 Computing Diagnostic #    286  SIhsnowN     Counter:       4   Parms: SM      MX      
 Compute Stats, Diag. #    214  SIarea    vol(   0 ): 3.580E+14  Parms: SM      M1      
 Compute Stats, Diag. #    217  SIheff    vol(   0 ): 3.580E+14  Parms: SM      M1      
 Compute Stats, Diag. #    219  SIhsnow   vol(   0 ): 3.580E+14  Parms: SM      M1      
 Compute Stats, Diag. #     83  sIceLoad  vol(   0 ): 3.580E+14  Parms: SM      U1      
 Compute Stats, Diag. #    223  SIuice    vol(   0 ): 3.513E+14  Parms: UU      M1      
 Compute Stats, Diag. #    224  SIvice    vol(   0 ): 3.508E+14  Parms: VV      M1      
 Compute Stats, Diag. #    225  SItaux    vol(   0 ): 3.513E+14  Parms: UU      U1      
 Compute Stats, Diag. #    226  SItauy    vol(   0 ): 3.508E+14  Parms: VV      U1      
 cg2d: Sum(rhs),rhsMax =  -6.34650397894604E+01  3.00939369912518E-01
 Compute Stats, Diag. #    214  SIarea    vol(   0 ): 3.580E+14  Parms: SM      M1      
 Compute Stats, Diag. #    217  SIheff    vol(   0 ): 3.580E+14  Parms: SM      M1      
 Compute Stats, Diag. #    219  SIhsnow   vol(   0 ): 3.580E+14  Parms: SM      M1      
 Compute Stats, Diag. #     83  sIceLoad  vol(   0 ): 3.580E+14  Parms: SM      U1      
 Compute Stats, Diag. #    223  SIuice    vol(   0 ): 3.513E+14  Parms: UU      M1      
 Compute Stats, Diag. #    224  SIvice    vol(   0 ): 3.508E+14  Parms: VV      M1      
 Compute Stats, Diag. #    225  SItaux    vol(   0 ): 3.513E+14  Parms: UU      U1      
 Compute Stats, Diag. #    226  SItauy    vol(   0 ): 3.508E+14  Parms: VV      U1      
 cg2d: Sum(rhs),rhsMax =  -6.35326635219612E+01  3.01011946453685E-01
 Compute Stats, Diag. #    214  SIarea    vol(   0 ): 3.580E+14  Parms: SM      M1      
 Compute Stats, Diag. #    217  SIheff    vol(   0 ): 3.580E+14  Parms: SM      M1      
 Compute Stats, Diag. #    219  SIhsnow   vol(   0 ): 3.580E+14  Parms: SM      M1      
 Compute Stats, Diag. #     83  sIceLoad  vol(   0 ): 3.580E+14  Parms: SM      U1      
 Compute Stats, Diag. #    223  SIuice    vol(   0 ): 3.513E+14  Parms: UU      M1      
 Compute Stats, Diag. #    224  SIvice    vol(   0 ): 3.508E+14  Parms: VV      M1      
 Compute Stats, Diag. #    225  SItaux    vol(   0 ): 3.513E+14  Parms: UU      U1      
 Compute Stats, Diag. #    226  SItauy    vol(   0 ): 3.508E+14  Parms: VV      U1      
 cg2d: Sum(rhs),rhsMax =  -6.35912833438430E+01  3.01081245276216E-01
 Compute Stats, Diag. #    214  SIarea    vol(   0 ): 3.580E+14  Parms: SM      M1      
 Compute Stats, Diag. #    217  SIheff    vol(   0 ): 3.580E+14  Parms: SM      M1      
 Compute Stats, Diag. #    219  SIhsnow   vol(   0 ): 3.580E+14  Parms: SM      M1      
 Compute Stats, Diag. #     83  sIceLoad  vol(   0 ): 3.580E+14  Parms: SM      U1      
 Compute Stats, Diag. #    223  SIuice    vol(   0 ): 3.513E+14  Parms: UU      M1      
 Compute Stats, Diag. #    224  SIvice    vol(   0 ): 3.508E+14  Parms: VV      M1      
 Compute Stats, Diag. #    225  SItaux    vol(   0 ): 3.513E+14  Parms: UU      U1      
 Compute Stats, Diag. #    226  SItauy    vol(   0 ): 3.508E+14  Parms: VV      U1      
 cg2d: Sum(rhs),rhsMax =  -6.36354877516810E+01  3.01146259605720E-01
(PID.TID 0000.0001)      cg2d_init_res =   4.02851401431897E-02
(PID.TID 0000.0001)      cg2d_iters(min,last) =      -1      23
(PID.TID 0000.0001)      cg2d_last_res =   2.44329357282310E-05
(PID.TID 0000.0001) // =======================================================
(PID.TID 0000.0001) // Begin MONITOR dynamic field statistics
(PID.TID 0000.0001) // =======================================================
(PID.TID 0000.0001) %MON time_tsnumber                =                  1344
(PID.TID 0000.0001) %MON time_secondsf                =   1.2096000000000E+06
(PID.TID 0000.0001) %MON dynstat_eta_max              =   1.0154775059364E+00
(PID.TID 0000.0001) %MON dynstat_eta_min              =  -1.8785321772873E+00
(PID.TID 0000.0001) %MON dynstat_eta_mean             =   2.0129937158486E-03
(PID.TID 0000.0001) %MON dynstat_eta_sd               =   6.2843463884810E-01
(PID.TID 0000.0001) %MON dynstat_eta_del2             =   5.0336992871218E-05
(PID.TID 0000.0001) %MON dynstat_uvel_max             =   6.8307198558035E-01
(PID.TID 0000.0001) %MON dynstat_uvel_min             =  -9.9645120888912E-01
(PID.TID 0000.0001) %MON dynstat_uvel_mean            =   1.3551377550424E-03
(PID.TID 0000.0001) %MON dynstat_uvel_sd              =   1.8066895467403E-02
(PID.TID 0000.0001) %MON dynstat_uvel_del2            =   7.4033739534407E-06
(PID.TID 0000.0001) %MON dynstat_vvel_max             =   6.7508920395844E-01
(PID.TID 0000.0001) %MON dynstat_vvel_min             =  -1.1426459926425E+00
(PID.TID 0000.0001) %MON dynstat_vvel_mean            =   1.1320591802569E-03
(PID.TID 0000.0001) %MON dynstat_vvel_sd              =   1.9617392851399E-02
(PID.TID 0000.0001) %MON dynstat_vvel_del2            =   7.5198021936023E-06
(PID.TID 0000.0001) %MON dynstat_wvel_max             =   2.9159154102908E-04
(PID.TID 0000.0001) %MON dynstat_wvel_min             =  -7.7713108999610E-04
(PID.TID 0000.0001) %MON dynstat_wvel_mean            =  -1.1352471721385E-09
(PID.TID 0000.0001) %MON dynstat_wvel_sd              =   1.5865149642152E-05
(PID.TID 0000.0001) %MON dynstat_wvel_del2            =   1.6089236006175E-08
(PID.TID 0000.0001) %MON dynstat_theta_max            =   3.1200226708915E+01
(PID.TID 0000.0001) %MON dynstat_theta_min            =  -2.0393798508985E+00
(PID.TID 0000.0001) %MON dynstat_theta_mean           =   3.5899538031186E+00
(PID.TID 0000.0001) %MON dynstat_theta_sd             =   4.4368023086470E+00
(PID.TID 0000.0001) %MON dynstat_theta_del2           =   8.9008860257360E-05
(PID.TID 0000.0001) %MON dynstat_salt_max             =   4.0711556313836E+01
(PID.TID 0000.0001) %MON dynstat_salt_min             =   6.4244039274645E+00
(PID.TID 0000.0001) %MON dynstat_salt_mean            =   3.4725553580302E+01
(PID.TID 0000.0001) %MON dynstat_salt_sd              =   3.7718765566037E-01
(PID.TID 0000.0001) %MON dynstat_salt_del2            =   3.7250330890121E-05
(PID.TID 0000.0001) %MON dynstat_sst_max              =   3.1200207836007E+01
(PID.TID 0000.0001) %MON dynstat_sst_min              =  -1.8093715927361E+00
(PID.TID 0000.0001) %MON dynstat_sst_mean             =   1.8432294851973E+01
(PID.TID 0000.0001) %MON dynstat_sst_sd               =   1.0327800153268E+01
(PID.TID 0000.0001) %MON dynstat_sst_del2             =   7.8581479589273E-04
(PID.TID 0000.0001) %MON dynstat_sss_max              =   3.9098140918654E+01
(PID.TID 0000.0001) %MON dynstat_sss_min              =   6.4244039274645E+00
(PID.TID 0000.0001) %MON dynstat_sss_mean             =   3.4702316118447E+01
(PID.TID 0000.0001) %MON dynstat_sss_sd               =   1.1914884328389E+00
(PID.TID 0000.0001) %MON dynstat_sss_del2             =   1.1125110386716E-03
(PID.TID 0000.0001) %MON forcing_qnet_max             =   1.1992028808594E+03
(PID.TID 0000.0001) %MON forcing_qnet_min             =  -1.0351619873047E+03
(PID.TID 0000.0001) %MON forcing_qnet_mean            =  -1.2113674349258E+01
(PID.TID 0000.0001) %MON forcing_qnet_sd              =   2.0435720879575E+02
(PID.TID 0000.0001) %MON forcing_qnet_del2            =   3.2324401634237E-01
(PID.TID 0000.0001) %MON forcing_qsw_max              =   0.0000000000000E+00
(PID.TID 0000.0001) %MON forcing_qsw_min              =  -1.1017437488029E+02
(PID.TID 0000.0001) %MON forcing_qsw_mean             =  -2.1735815907766E+01
(PID.TID 0000.0001) %MON forcing_qsw_sd               =   3.0742552740924E+01
(PID.TID 0000.0001) %MON forcing_qsw_del2             =   1.9035629443157E-02
(PID.TID 0000.0001) %MON forcing_empmr_max            =   2.0016818307340E-03
(PID.TID 0000.0001) %MON forcing_empmr_min            =  -1.0752787441015E-01
(PID.TID 0000.0001) %MON forcing_empmr_mean           =  -1.5987534121019E-06
(PID.TID 0000.0001) %MON forcing_empmr_sd             =   3.7288062733641E-04
(PID.TID 0000.0001) %MON forcing_empmr_del2           =   3.9818603423074E-06
(PID.TID 0000.0001) %MON forcing_fu_max               =   1.1271191835403E+00
(PID.TID 0000.0001) %MON forcing_fu_min               =  -1.4304582476616E+00
(PID.TID 0000.0001) %MON forcing_fu_mean              =   4.3581787417550E-03
(PID.TID 0000.0001) %MON forcing_fu_sd                =   1.3047134526711E-01
(PID.TID 0000.0001) %MON forcing_fu_del2              =   1.8854809756710E-04
(PID.TID 0000.0001) %MON forcing_fv_max               =   1.0646291375160E+00
(PID.TID 0000.0001) %MON forcing_fv_min               =  -1.0988912975617E+00
(PID.TID 0000.0001) %MON forcing_fv_mean              =  -4.4404901521589E-03
(PID.TID 0000.0001) %MON forcing_fv_sd                =   1.2763075141987E-01
(PID.TID 0000.0001) %MON forcing_fv_del2              =   1.7912149171250E-04
(PID.TID 0000.0001) %MON trAdv_CFL_u_max              =   1.4054093645506E-02
(PID.TID 0000.0001) %MON trAdv_CFL_v_max              =   1.2664654626311E-02
(PID.TID 0000.0001) %MON trAdv_CFL_w_max              =   2.5428894218543E-02
(PID.TID 0000.0001) %MON advcfl_uvel_max              =   1.2593982567399E-02
(PID.TID 0000.0001) %MON advcfl_vvel_max              =   1.2708194707173E-02
(PID.TID 0000.0001) %MON advcfl_wvel_max              =   2.5895150930348E-02
(PID.TID 0000.0001) %MON advcfl_W_hf_max              =   2.6032438912194E-02
(PID.TID 0000.0001) %MON pe_b_mean                    =   5.1949662436142E-04
(PID.TID 0000.0001) %MON ke_max                       =   7.2680470530187E-01
(PID.TID 0000.0001) %MON ke_mean                      =   3.4446788428820E-04
(PID.TID 0000.0001) %MON ke_vol                       =   1.3349985971183E+18
(PID.TID 0000.0001) %MON vort_r_min                   =  -1.4514988708740E-05
(PID.TID 0000.0001) %MON vort_r_max                   =   1.9878979495055E-05
(PID.TID 0000.0001) %MON vort_a_mean                  =  -1.9727864647440E-05
(PID.TID 0000.0001) %MON vort_a_sd                    =   7.4543002088541E-05
(PID.TID 0000.0001) %MON vort_p_mean                  =  -2.1760522656927E-05
(PID.TID 0000.0001) %MON vort_p_sd                    =   9.7246163615489E-05
(PID.TID 0000.0001) %MON surfExpan_theta_mean         =   1.6966784191957E-07
(PID.TID 0000.0001) %MON surfExpan_salt_mean          =   6.8801109341412E-08
(PID.TID 0000.0001) // =======================================================
(PID.TID 0000.0001) // End MONITOR dynamic field statistics
(PID.TID 0000.0001) // =======================================================
(PID.TID 0000.0001) // =======================================================
(PID.TID 0000.0001) // Begin MONITOR SEAICE statistics
(PID.TID 0000.0001) // =======================================================
(PID.TID 0000.0001) %MON seaice_tsnumber              =                  1344
(PID.TID 0000.0001) %MON seaice_time_sec              =   1.2096000000000E+06
(PID.TID 0000.0001) %MON seaice_uice_max              =   4.0000000000000E-01
(PID.TID 0000.0001) %MON seaice_uice_min              =  -4.0000000000000E-01
(PID.TID 0000.0001) %MON seaice_uice_mean             =  -8.3054598624025E-03
(PID.TID 0000.0001) %MON seaice_uice_sd               =   1.9802383574176E-01
(PID.TID 0000.0001) %MON seaice_uice_del2             =   2.2931571122150E-04
(PID.TID 0000.0001) %MON seaice_vice_max              =   4.0000000000000E-01
(PID.TID 0000.0001) %MON seaice_vice_min              =  -4.0000000000000E-01
(PID.TID 0000.0001) %MON seaice_vice_mean             =  -2.1960776359499E-02
(PID.TID 0000.0001) %MON seaice_vice_sd               =   2.1302038025672E-01
(PID.TID 0000.0001) %MON seaice_vice_del2             =   2.3932563818061E-04
(PID.TID 0000.0001) %MON seaice_area_max              =   9.9999998690328E-01
(PID.TID 0000.0001) %MON seaice_area_min              =   0.0000000000000E+00
(PID.TID 0000.0001) %MON seaice_area_mean             =   6.3923727336963E-02
(PID.TID 0000.0001) %MON seaice_area_sd               =   2.2644433776098E-01
(PID.TID 0000.0001) %MON seaice_area_del2             =   3.6267832484905E-04
(PID.TID 0000.0001) %MON seaice_heff_max              =   2.4858615457721E+01
(PID.TID 0000.0001) %MON seaice_heff_min              =   0.0000000000000E+00
(PID.TID 0000.0001) %MON seaice_heff_mean             =   2.1089007580283E-01
(PID.TID 0000.0001) %MON seaice_heff_sd               =   1.0651509375500E+00
(PID.TID 0000.0001) %MON seaice_heff_del2             =   3.7975063966651E-03
(PID.TID 0000.0001) %MON seaice_hsnow_max             =   8.2107418275846E+00
(PID.TID 0000.0001) %MON seaice_hsnow_min             =   0.0000000000000E+00
(PID.TID 0000.0001) %MON seaice_hsnow_mean            =   2.3853356129009E-02
(PID.TID 0000.0001) %MON seaice_hsnow_sd              =   1.5566238905780E-01
(PID.TID 0000.0001) %MON seaice_hsnow_del2            =   1.2314685812743E-03
(PID.TID 0000.0001) // =======================================================
(PID.TID 0000.0001) // End MONITOR SEAICE statistics
(PID.TID 0000.0001) // =======================================================
 Computing Diagnostic #     86  oceQnet      Counter:       4   Parms: SM      U1      
 Computing Diagnostic #     87  oceQsw       Counter:       4   Parms: SM      U1      
 Computing Diagnostic #     84  oceFWflx     Counter:       4   Parms: SM      U1      
 Computing Diagnostic #     85  oceSflux     Counter:       4   Parms: SM      U1      
 Computing Diagnostic #     80  oceTAUX      Counter:       4   Parms: UU      U1      
           Vector  Mate for  oceTAUX      Diagnostic #     81  oceTAUY  exists 
 Computing Diagnostic #     81  oceTAUY      Counter:       4   Parms: VV      U1      
           Vector  Mate for  oceTAUY      Diagnostic #     80  oceTAUX  exists 
 Computing Diagnostic #     26  THETA        Counter:       4   Parms: SMR     MR      
 Computing Diagnostic #     27  SALT         Counter:       4   Parms: SMR     MR      
 Computing Diagnostic #     30  UVEL         Counter:       4   Parms: UUR     MR      
           Vector  Mate for  UVEL         Diagnostic #     31  VVEL     exists 
 Computing Diagnostic #     31  VVEL         Counter:       4   Parms: VVR     MR      
           Vector  Mate for  VVEL         Diagnostic #     30  UVEL     exists 
 Computing Diagnostic #    214  SIarea       Counter:       4   Parms: SM      M1      
 Computing Diagnostic #    217  SIheff       Counter:       4   Parms: SM      M1      
 Computing Diagnostic #    219  SIhsnow      Counter:       4   Parms: SM      M1      
 Computing Diagnostic #     83  sIceLoad     Counter:       4   Parms: SM      U1      
 Computing Diagnostic #    223  SIuice       Counter:       4   Parms: UU      M1      
           Vector  Mate for  SIuice       Diagnostic #    224  SIvice   exists 
 Computing Diagnostic #    224  SIvice       Counter:       4   Parms: VV      M1      
           Vector  Mate for  SIvice       Diagnostic #    223  SIuice   exists 
 Computing Diagnostic #    225  SItaux       Counter:       4   Parms: UU      U1      
           Vector  Mate for  SItaux       Diagnostic #    226  SItauy   exists 
 Computing Diagnostic #    226  SItauy       Counter:       4   Parms: VV      U1      
           Vector  Mate for  SItauy       Diagnostic #    225  SItaux   exists 
 Computing Diagnostic #    285  SIareaN      Counter:       4   Parms: SM      MX      
 Computing Diagnostic #    284  SIheffN      Counter:       4   Parms: SM      MX      
 Computing Diagnostic #    286  SIhsnowN     Counter:       4   Parms: SM      MX      
 Compute Stats, Diag. #    214  SIarea    vol(   0 ): 3.580E+14  Parms: SM      M1      
 Compute Stats, Diag. #    217  SIheff    vol(   0 ): 3.580E+14  Parms: SM      M1      
 Compute Stats, Diag. #    219  SIhsnow   vol(   0 ): 3.580E+14  Parms: SM      M1      
 Compute Stats, Diag. #     83  sIceLoad  vol(   0 ): 3.580E+14  Parms: SM      U1      
 Compute Stats, Diag. #    223  SIuice    vol(   0 ): 3.513E+14  Parms: UU      M1      
 Compute Stats, Diag. #    224  SIvice    vol(   0 ): 3.508E+14  Parms: VV      M1      
 Compute Stats, Diag. #    225  SItaux    vol(   0 ): 3.513E+14  Parms: UU      U1      
 Compute Stats, Diag. #    226  SItauy    vol(   0 ): 3.508E+14  Parms: VV      U1      
 cg2d: Sum(rhs),rhsMax =  -6.36740898394637E+01  3.01207870797292E-01
 Compute Stats, Diag. #    214  SIarea    vol(   0 ): 3.580E+14  Parms: SM      M1      
 Compute Stats, Diag. #    217  SIheff    vol(   0 ): 3.580E+14  Parms: SM      M1      
 Compute Stats, Diag. #    219  SIhsnow   vol(   0 ): 3.580E+14  Parms: SM      M1      
 Compute Stats, Diag. #     83  sIceLoad  vol(   0 ): 3.580E+14  Parms: SM      U1      
 Compute Stats, Diag. #    223  SIuice    vol(   0 ): 3.513E+14  Parms: UU      M1      
 Compute Stats, Diag. #    224  SIvice    vol(   0 ): 3.508E+14  Parms: VV      M1      
 Compute Stats, Diag. #    225  SItaux    vol(   0 ): 3.513E+14  Parms: UU      U1      
 Compute Stats, Diag. #    226  SItauy    vol(   0 ): 3.508E+14  Parms: VV      U1      
 cg2d: Sum(rhs),rhsMax =  -6.37084919782473E+01  3.01265496459352E-01
 Compute Stats, Diag. #    214  SIarea    vol(   0 ): 3.580E+14  Parms: SM      M1      
 Compute Stats, Diag. #    217  SIheff    vol(   0 ): 3.580E+14  Parms: SM      M1      
 Compute Stats, Diag. #    219  SIhsnow   vol(   0 ): 3.580E+14  Parms: SM      M1      
 Compute Stats, Diag. #     83  sIceLoad  vol(   0 ): 3.580E+14  Parms: SM      U1      
 Compute Stats, Diag. #    223  SIuice    vol(   0 ): 3.513E+14  Parms: UU      M1      
 Compute Stats, Diag. #    224  SIvice    vol(   0 ): 3.508E+14  Parms: VV      M1      
 Compute Stats, Diag. #    225  SItaux    vol(   0 ): 3.513E+14  Parms: UU      U1      
 Compute Stats, Diag. #    226  SItauy    vol(   0 ): 3.508E+14  Parms: VV      U1      
 cg2d: Sum(rhs),rhsMax =  -6.37397301030166E+01  3.01319729646275E-01
 Compute Stats, Diag. #    214  SIarea    vol(   0 ): 3.580E+14  Parms: SM      M1      
 Compute Stats, Diag. #    217  SIheff    vol(   0 ): 3.580E+14  Parms: SM      M1      
 Compute Stats, Diag. #    219  SIhsnow   vol(   0 ): 3.580E+14  Parms: SM      M1      
 Compute Stats, Diag. #     83  sIceLoad  vol(   0 ): 3.580E+14  Parms: SM      U1      
 Compute Stats, Diag. #    223  SIuice    vol(   0 ): 3.513E+14  Parms: UU      M1      
 Compute Stats, Diag. #    224  SIvice    vol(   0 ): 3.508E+14  Parms: VV      M1      
 Compute Stats, Diag. #    225  SItaux    vol(   0 ): 3.513E+14  Parms: UU      U1      
 Compute Stats, Diag. #    226  SItauy    vol(   0 ): 3.508E+14  Parms: VV      U1      
 cg2d: Sum(rhs),rhsMax =  -6.37611265941080E+01  3.01370960278171E-01
 Computing Diagnostic #     86  oceQnet      Counter:       4   Parms: SM      U1      
 Computing Diagnostic #     87  oceQsw       Counter:       4   Parms: SM      U1      
 Computing Diagnostic #     84  oceFWflx     Counter:       4   Parms: SM      U1      
 Computing Diagnostic #     85  oceSflux     Counter:       4   Parms: SM      U1      
 Computing Diagnostic #     80  oceTAUX      Counter:       4   Parms: UU      U1      
           Vector  Mate for  oceTAUX      Diagnostic #     81  oceTAUY  exists 
 Computing Diagnostic #     81  oceTAUY      Counter:       4   Parms: VV      U1      
           Vector  Mate for  oceTAUY      Diagnostic #     80  oceTAUX  exists 
 Computing Diagnostic #     26  THETA        Counter:       4   Parms: SMR     MR      
 Computing Diagnostic #     27  SALT         Counter:       4   Parms: SMR     MR      
 Computing Diagnostic #     30  UVEL         Counter:       4   Parms: UUR     MR      
           Vector  Mate for  UVEL         Diagnostic #     31  VVEL     exists 
 Computing Diagnostic #     31  VVEL         Counter:       4   Parms: VVR     MR      
           Vector  Mate for  VVEL         Diagnostic #     30  UVEL     exists 
 Computing Diagnostic #    214  SIarea       Counter:       4   Parms: SM      M1      
 Computing Diagnostic #    217  SIheff       Counter:       4   Parms: SM      M1      
 Computing Diagnostic #    219  SIhsnow      Counter:       4   Parms: SM      M1      
 Computing Diagnostic #     83  sIceLoad     Counter:       4   Parms: SM      U1      
 Computing Diagnostic #    223  SIuice       Counter:       4   Parms: UU      M1      
           Vector  Mate for  SIuice       Diagnostic #    224  SIvice   exists 
 Computing Diagnostic #    224  SIvice       Counter:       4   Parms: VV      M1      
           Vector  Mate for  SIvice       Diagnostic #    223  SIuice   exists 
 Computing Diagnostic #    225  SItaux       Counter:       4   Parms: UU      U1      
           Vector  Mate for  SItaux       Diagnostic #    226  SItauy   exists 
 Computing Diagnostic #    226  SItauy       Counter:       4   Parms: VV      U1      
           Vector  Mate for  SItauy       Diagnostic #    225  SItaux   exists 
 Computing Diagnostic #    285  SIareaN      Counter:       4   Parms: SM      MX      
 Computing Diagnostic #    284  SIheffN      Counter:       4   Parms: SM      MX      
 Computing Diagnostic #    286  SIhsnowN     Counter:       4   Parms: SM      MX      
 Compute Stats, Diag. #    214  SIarea    vol(   0 ): 3.580E+14  Parms: SM      M1      
 Compute Stats, Diag. #    217  SIheff    vol(   0 ): 3.580E+14  Parms: SM      M1      
 Compute Stats, Diag. #    219  SIhsnow   vol(   0 ): 3.580E+14  Parms: SM      M1      
 Compute Stats, Diag. #     83  sIceLoad  vol(   0 ): 3.580E+14  Parms: SM      U1      
 Compute Stats, Diag. #    223  SIuice    vol(   0 ): 3.513E+14  Parms: UU      M1      
 Compute Stats, Diag. #    224  SIvice    vol(   0 ): 3.508E+14  Parms: VV      M1      
 Compute Stats, Diag. #    225  SItaux    vol(   0 ): 3.513E+14  Parms: UU      U1      
 Compute Stats, Diag. #    226  SItauy    vol(   0 ): 3.508E+14  Parms: VV      U1      
 cg2d: Sum(rhs),rhsMax =  -6.37843659121505E+01  3.01419902494383E-01
 Compute Stats, Diag. #    214  SIarea    vol(   0 ): 3.580E+14  Parms: SM      M1      
 Compute Stats, Diag. #    217  SIheff    vol(   0 ): 3.580E+14  Parms: SM      M1      
 Compute Stats, Diag. #    219  SIhsnow   vol(   0 ): 3.580E+14  Parms: SM      M1      
 Compute Stats, Diag. #     83  sIceLoad  vol(   0 ): 3.580E+14  Parms: SM      U1      
 Compute Stats, Diag. #    223  SIuice    vol(   0 ): 3.513E+14  Parms: UU      M1      
 Compute Stats, Diag. #    224  SIvice    vol(   0 ): 3.508E+14  Parms: VV      M1      
 Compute Stats, Diag. #    225  SItaux    vol(   0 ): 3.513E+14  Parms: UU      U1      
 Compute Stats, Diag. #    226  SItauy    vol(   0 ): 3.508E+14  Parms: VV      U1      
 cg2d: Sum(rhs),rhsMax =  -6.37819426276791E+01  3.01466179337322E-01
 Compute Stats, Diag. #    214  SIarea    vol(   0 ): 3.580E+14  Parms: SM      M1      
 Compute Stats, Diag. #    217  SIheff    vol(   0 ): 3.580E+14  Parms: SM      M1      
 Compute Stats, Diag. #    219  SIhsnow   vol(   0 ): 3.580E+14  Parms: SM      M1      
 Compute Stats, Diag. #     83  sIceLoad  vol(   0 ): 3.580E+14  Parms: SM      U1      
 Compute Stats, Diag. #    223  SIuice    vol(   0 ): 3.513E+14  Parms: UU      M1      
 Compute Stats, Diag. #    224  SIvice    vol(   0 ): 3.508E+14  Parms: VV      M1      
 Compute Stats, Diag. #    225  SItaux    vol(   0 ): 3.513E+14  Parms: UU      U1      
 Compute Stats, Diag. #    226  SItauy    vol(   0 ): 3.508E+14  Parms: VV      U1      
 cg2d: Sum(rhs),rhsMax =  -6.37779109108435E+01  3.01509855289734E-01
 Compute Stats, Diag. #    214  SIarea    vol(   0 ): 3.580E+14  Parms: SM      M1      
 Compute Stats, Diag. #    217  SIheff    vol(   0 ): 3.580E+14  Parms: SM      M1      
 Compute Stats, Diag. #    219  SIhsnow   vol(   0 ): 3.580E+14  Parms: SM      M1      
 Compute Stats, Diag. #     83  sIceLoad  vol(   0 ): 3.580E+14  Parms: SM      U1      
 Compute Stats, Diag. #    223  SIuice    vol(   0 ): 3.513E+14  Parms: UU      M1      
 Compute Stats, Diag. #    224  SIvice    vol(   0 ): 3.508E+14  Parms: VV      M1      
 Compute Stats, Diag. #    225  SItaux    vol(   0 ): 3.513E+14  Parms: UU      U1      
 Compute Stats, Diag. #    226  SItauy    vol(   0 ): 3.508E+14  Parms: VV      U1      
 cg2d: Sum(rhs),rhsMax =  -6.37779430360933E+01  3.01553438381953E-01
(PID.TID 0000.0001)      cg2d_init_res =   3.99945577083666E-02
(PID.TID 0000.0001)      cg2d_iters(min,last) =      -1      23
(PID.TID 0000.0001)      cg2d_last_res =   2.52538772926823E-05
(PID.TID 0000.0001) // =======================================================
(PID.TID 0000.0001) // Begin MONITOR dynamic field statistics
(PID.TID 0000.0001) // =======================================================
(PID.TID 0000.0001) %MON time_tsnumber                =                  1352
(PID.TID 0000.0001) %MON time_secondsf                =   1.2168000000000E+06
(PID.TID 0000.0001) %MON dynstat_eta_max              =   1.0153800629916E+00
(PID.TID 0000.0001) %MON dynstat_eta_min              =  -1.8806624138986E+00
(PID.TID 0000.0001) %MON dynstat_eta_mean             =   2.0175000314663E-03
(PID.TID 0000.0001) %MON dynstat_eta_sd               =   6.2872266208831E-01
(PID.TID 0000.0001) %MON dynstat_eta_del2             =   5.0038104192545E-05
(PID.TID 0000.0001) %MON dynstat_uvel_max             =   6.7933987572485E-01
(PID.TID 0000.0001) %MON dynstat_uvel_min             =  -1.0073175086127E+00
(PID.TID 0000.0001) %MON dynstat_uvel_mean            =   1.3494736168972E-03
(PID.TID 0000.0001) %MON dynstat_uvel_sd              =   1.8075445303910E-02
(PID.TID 0000.0001) %MON dynstat_uvel_del2            =   7.3863444415338E-06
(PID.TID 0000.0001) %MON dynstat_vvel_max             =   6.6801193056874E-01
(PID.TID 0000.0001) %MON dynstat_vvel_min             =  -1.1524316607671E+00
(PID.TID 0000.0001) %MON dynstat_vvel_mean            =   1.1194978177588E-03
(PID.TID 0000.0001) %MON dynstat_vvel_sd              =   1.9618958827922E-02
(PID.TID 0000.0001) %MON dynstat_vvel_del2            =   7.5040528793551E-06
(PID.TID 0000.0001) %MON dynstat_wvel_max             =   3.0079389167610E-04
(PID.TID 0000.0001) %MON dynstat_wvel_min             =  -7.7766471685247E-04
(PID.TID 0000.0001) %MON dynstat_wvel_mean            =  -1.2898432241500E-09
(PID.TID 0000.0001) %MON dynstat_wvel_sd              =   1.5774801972483E-05
(PID.TID 0000.0001) %MON dynstat_wvel_del2            =   1.6130698232188E-08
(PID.TID 0000.0001) %MON dynstat_theta_max            =   3.1179152261829E+01
(PID.TID 0000.0001) %MON dynstat_theta_min            =  -2.0393710854386E+00
(PID.TID 0000.0001) %MON dynstat_theta_mean           =   3.5899616855569E+00
(PID.TID 0000.0001) %MON dynstat_theta_sd             =   4.4368594577852E+00
(PID.TID 0000.0001) %MON dynstat_theta_del2           =   8.8990689922030E-05
(PID.TID 0000.0001) %MON dynstat_salt_max             =   4.0711556447023E+01
(PID.TID 0000.0001) %MON dynstat_salt_min             =   6.4163389585342E+00
(PID.TID 0000.0001) %MON dynstat_salt_mean            =   3.4725553532005E+01
(PID.TID 0000.0001) %MON dynstat_salt_sd              =   3.7719129470984E-01
(PID.TID 0000.0001) %MON dynstat_salt_del2            =   3.7347731304226E-05
(PID.TID 0000.0001) %MON dynstat_sst_max              =   3.1179138681133E+01
(PID.TID 0000.0001) %MON dynstat_sst_min              =  -1.8061900835681E+00
(PID.TID 0000.0001) %MON dynstat_sst_mean             =   1.8434662204499E+01
(PID.TID 0000.0001) %MON dynstat_sst_sd               =   1.0329922977427E+01
(PID.TID 0000.0001) %MON dynstat_sst_del2             =   7.8726972211413E-04
(PID.TID 0000.0001) %MON dynstat_sss_max              =   3.9098144790347E+01
(PID.TID 0000.0001) %MON dynstat_sss_min              =   6.4163389585342E+00
(PID.TID 0000.0001) %MON dynstat_sss_mean             =   3.4702354103399E+01
(PID.TID 0000.0001) %MON dynstat_sss_sd               =   1.1919076029022E+00
(PID.TID 0000.0001) %MON dynstat_sss_del2             =   1.1171474646422E-03
(PID.TID 0000.0001) %MON forcing_qnet_max             =   5.6312030029297E+02
(PID.TID 0000.0001) %MON forcing_qnet_min             =  -7.8772584487040E+02
(PID.TID 0000.0001) %MON forcing_qnet_mean            =  -1.8940050047151E+01
(PID.TID 0000.0001) %MON forcing_qnet_sd              =   2.1370646386801E+02
(PID.TID 0000.0001) %MON forcing_qnet_del2            =   3.0974450894079E-01
(PID.TID 0000.0001) %MON forcing_qsw_max              =   0.0000000000000E+00
(PID.TID 0000.0001) %MON forcing_qsw_min              =  -1.0842131856977E+02
(PID.TID 0000.0001) %MON forcing_qsw_mean             =  -2.2746927654313E+01
(PID.TID 0000.0001) %MON forcing_qsw_sd               =   3.1176186284237E+01
(PID.TID 0000.0001) %MON forcing_qsw_del2             =   1.8889152484218E-02
(PID.TID 0000.0001) %MON forcing_empmr_max            =   1.5462239971384E-03
(PID.TID 0000.0001) %MON forcing_empmr_min            =  -1.0015464574099E-01
(PID.TID 0000.0001) %MON forcing_empmr_mean           =  -1.1618830499040E-09
(PID.TID 0000.0001) %MON forcing_empmr_sd             =   3.3423981010475E-04
(PID.TID 0000.0001) %MON forcing_empmr_del2           =   3.4656645658385E-06
(PID.TID 0000.0001) %MON forcing_fu_max               =   1.0592400431633E+00
(PID.TID 0000.0001) %MON forcing_fu_min               =  -1.3563870787621E+00
(PID.TID 0000.0001) %MON forcing_fu_mean              =   4.3605885512389E-03
(PID.TID 0000.0001) %MON forcing_fu_sd                =   1.3047611457159E-01
(PID.TID 0000.0001) %MON forcing_fu_del2              =   1.8621721021209E-04
(PID.TID 0000.0001) %MON forcing_fv_max               =   1.0729977488518E+00
(PID.TID 0000.0001) %MON forcing_fv_min               =  -1.2734871836463E+00
(PID.TID 0000.0001) %MON forcing_fv_mean              =  -4.0597576164323E-03
(PID.TID 0000.0001) %MON forcing_fv_sd                =   1.2722077336862E-01
(PID.TID 0000.0001) %MON forcing_fv_del2              =   1.8170488881519E-04
(PID.TID 0000.0001) %MON trAdv_CFL_u_max              =   1.4338492425146E-02
(PID.TID 0000.0001) %MON trAdv_CFL_v_max              =   1.2721143995922E-02
(PID.TID 0000.0001) %MON trAdv_CFL_w_max              =   2.6841878065936E-02
(PID.TID 0000.0001) %MON advcfl_uvel_max              =   1.2612124250830E-02
(PID.TID 0000.0001) %MON advcfl_vvel_max              =   1.2661859221190E-02
(PID.TID 0000.0001) %MON advcfl_wvel_max              =   2.7435424475943E-02
(PID.TID 0000.0001) %MON advcfl_W_hf_max              =   2.7579298787806E-02
(PID.TID 0000.0001) %MON pe_b_mean                    =   5.1997294152472E-04
(PID.TID 0000.0001) %MON ke_max                       =   7.3922328851171E-01
(PID.TID 0000.0001) %MON ke_mean                      =   3.4462547058548E-04
(PID.TID 0000.0001) %MON ke_vol                       =   1.3349985992319E+18
(PID.TID 0000.0001) %MON vort_r_min                   =  -1.4739598097046E-05
(PID.TID 0000.0001) %MON vort_r_max                   =   1.9996907001764E-05
(PID.TID 0000.0001) %MON vort_a_mean                  =  -1.9727864647440E-05
(PID.TID 0000.0001) %MON vort_a_sd                    =   7.4542999221334E-05
(PID.TID 0000.0001) %MON vort_p_mean                  =  -2.1760522594315E-05
(PID.TID 0000.0001) %MON vort_p_sd                    =   9.7246108948205E-05
(PID.TID 0000.0001) %MON surfExpan_theta_mean         =   1.5886978764854E-07
(PID.TID 0000.0001) %MON surfExpan_salt_mean          =   6.1443852101452E-08
(PID.TID 0000.0001) // =======================================================
(PID.TID 0000.0001) // End MONITOR dynamic field statistics
(PID.TID 0000.0001) // =======================================================
(PID.TID 0000.0001) // =======================================================
(PID.TID 0000.0001) // Begin MONITOR SEAICE statistics
(PID.TID 0000.0001) // =======================================================
(PID.TID 0000.0001) %MON seaice_tsnumber              =                  1352
(PID.TID 0000.0001) %MON seaice_time_sec              =   1.2168000000000E+06
(PID.TID 0000.0001) %MON seaice_uice_max              =   4.0000000000000E-01
(PID.TID 0000.0001) %MON seaice_uice_min              =  -4.0000000000000E-01
(PID.TID 0000.0001) %MON seaice_uice_mean             =  -8.3054598624025E-03
(PID.TID 0000.0001) %MON seaice_uice_sd               =   1.9802383574176E-01
(PID.TID 0000.0001) %MON seaice_uice_del2             =   2.2931571122150E-04
(PID.TID 0000.0001) %MON seaice_vice_max              =   4.0000000000000E-01
(PID.TID 0000.0001) %MON seaice_vice_min              =  -4.0000000000000E-01
(PID.TID 0000.0001) %MON seaice_vice_mean             =  -2.1960776359499E-02
(PID.TID 0000.0001) %MON seaice_vice_sd               =   2.1302038025672E-01
(PID.TID 0000.0001) %MON seaice_vice_del2             =   2.3932563818061E-04
(PID.TID 0000.0001) %MON seaice_area_max              =   9.9999998591375E-01
(PID.TID 0000.0001) %MON seaice_area_min              =   0.0000000000000E+00
(PID.TID 0000.0001) %MON seaice_area_mean             =   6.3903971390178E-02
(PID.TID 0000.0001) %MON seaice_area_sd               =   2.2641395063792E-01
(PID.TID 0000.0001) %MON seaice_area_del2             =   3.6236957128829E-04
(PID.TID 0000.0001) %MON seaice_heff_max              =   2.4857368070167E+01
(PID.TID 0000.0001) %MON seaice_heff_min              =   0.0000000000000E+00
(PID.TID 0000.0001) %MON seaice_heff_mean             =   2.1087464343855E-01
(PID.TID 0000.0001) %MON seaice_heff_sd               =   1.0651429448969E+00
(PID.TID 0000.0001) %MON seaice_heff_del2             =   3.7969806343567E-03
(PID.TID 0000.0001) %MON seaice_hsnow_max             =   8.2103239516728E+00
(PID.TID 0000.0001) %MON seaice_hsnow_min             =   0.0000000000000E+00
(PID.TID 0000.0001) %MON seaice_hsnow_mean            =   2.3852339651319E-02
(PID.TID 0000.0001) %MON seaice_hsnow_sd              =   1.5566220201838E-01
(PID.TID 0000.0001) %MON seaice_hsnow_del2            =   1.2313924355371E-03
(PID.TID 0000.0001) // =======================================================
(PID.TID 0000.0001) // End MONITOR SEAICE statistics
(PID.TID 0000.0001) // =======================================================
 Computing Diagnostic #     86  oceQnet      Counter:       4   Parms: SM      U1      
 Computing Diagnostic #     87  oceQsw       Counter:       4   Parms: SM      U1      
 Computing Diagnostic #     84  oceFWflx     Counter:       4   Parms: SM      U1      
 Computing Diagnostic #     85  oceSflux     Counter:       4   Parms: SM      U1      
 Computing Diagnostic #     80  oceTAUX      Counter:       4   Parms: UU      U1      
           Vector  Mate for  oceTAUX      Diagnostic #     81  oceTAUY  exists 
 Computing Diagnostic #     81  oceTAUY      Counter:       4   Parms: VV      U1      
           Vector  Mate for  oceTAUY      Diagnostic #     80  oceTAUX  exists 
 Computing Diagnostic #     26  THETA        Counter:       4   Parms: SMR     MR      
 Computing Diagnostic #     27  SALT         Counter:       4   Parms: SMR     MR      
 Computing Diagnostic #     30  UVEL         Counter:       4   Parms: UUR     MR      
           Vector  Mate for  UVEL         Diagnostic #     31  VVEL     exists 
 Computing Diagnostic #     31  VVEL         Counter:       4   Parms: VVR     MR      
           Vector  Mate for  VVEL         Diagnostic #     30  UVEL     exists 
 Computing Diagnostic #    214  SIarea       Counter:       4   Parms: SM      M1      
 Computing Diagnostic #    217  SIheff       Counter:       4   Parms: SM      M1      
 Computing Diagnostic #    219  SIhsnow      Counter:       4   Parms: SM      M1      
 Computing Diagnostic #     83  sIceLoad     Counter:       4   Parms: SM      U1      
 Computing Diagnostic #    223  SIuice       Counter:       4   Parms: UU      M1      
           Vector  Mate for  SIuice       Diagnostic #    224  SIvice   exists 
 Computing Diagnostic #    224  SIvice       Counter:       4   Parms: VV      M1      
           Vector  Mate for  SIvice       Diagnostic #    223  SIuice   exists 
 Computing Diagnostic #    225  SItaux       Counter:       4   Parms: UU      U1      
           Vector  Mate for  SItaux       Diagnostic #    226  SItauy   exists 
 Computing Diagnostic #    226  SItauy       Counter:       4   Parms: VV      U1      
           Vector  Mate for  SItauy       Diagnostic #    225  SItaux   exists 
 Computing Diagnostic #    285  SIareaN      Counter:       4   Parms: SM      MX      
 Computing Diagnostic #    284  SIheffN      Counter:       4   Parms: SM      MX      
 Computing Diagnostic #    286  SIhsnowN     Counter:       4   Parms: SM      MX      
 Compute Stats, Diag. #    214  SIarea    vol(   0 ): 3.580E+14  Parms: SM      M1      
 Compute Stats, Diag. #    217  SIheff    vol(   0 ): 3.580E+14  Parms: SM      M1      
 Compute Stats, Diag. #    219  SIhsnow   vol(   0 ): 3.580E+14  Parms: SM      M1      
 Compute Stats, Diag. #     83  sIceLoad  vol(   0 ): 3.580E+14  Parms: SM      U1      
 Compute Stats, Diag. #    223  SIuice    vol(   0 ): 3.513E+14  Parms: UU      M1      
 Compute Stats, Diag. #    224  SIvice    vol(   0 ): 3.508E+14  Parms: VV      M1      
 Compute Stats, Diag. #    225  SItaux    vol(   0 ): 3.513E+14  Parms: UU      U1      
 Compute Stats, Diag. #    226  SItauy    vol(   0 ): 3.508E+14  Parms: VV      U1      
 cg2d: Sum(rhs),rhsMax =  -6.37725898140145E+01  3.01596155266593E-01
 Compute Stats, Diag. #    214  SIarea    vol(   0 ): 3.580E+14  Parms: SM      M1      
 Compute Stats, Diag. #    217  SIheff    vol(   0 ): 3.580E+14  Parms: SM      M1      
 Compute Stats, Diag. #    219  SIhsnow   vol(   0 ): 3.580E+14  Parms: SM      M1      
 Compute Stats, Diag. #     83  sIceLoad  vol(   0 ): 3.580E+14  Parms: SM      U1      
 Compute Stats, Diag. #    223  SIuice    vol(   0 ): 3.513E+14  Parms: UU      M1      
 Compute Stats, Diag. #    224  SIvice    vol(   0 ): 3.508E+14  Parms: VV      M1      
 Compute Stats, Diag. #    225  SItaux    vol(   0 ): 3.513E+14  Parms: UU      U1      
 Compute Stats, Diag. #    226  SItauy    vol(   0 ): 3.508E+14  Parms: VV      U1      
 cg2d: Sum(rhs),rhsMax =  -6.37650590434942E+01  3.01637557960980E-01
 Compute Stats, Diag. #    214  SIarea    vol(   0 ): 3.580E+14  Parms: SM      M1      
 Compute Stats, Diag. #    217  SIheff    vol(   0 ): 3.580E+14  Parms: SM      M1      
 Compute Stats, Diag. #    219  SIhsnow   vol(   0 ): 3.580E+14  Parms: SM      M1      
 Compute Stats, Diag. #     83  sIceLoad  vol(   0 ): 3.580E+14  Parms: SM      U1      
 Compute Stats, Diag. #    223  SIuice    vol(   0 ): 3.513E+14  Parms: UU      M1      
 Compute Stats, Diag. #    224  SIvice    vol(   0 ): 3.508E+14  Parms: VV      M1      
 Compute Stats, Diag. #    225  SItaux    vol(   0 ): 3.513E+14  Parms: UU      U1      
 Compute Stats, Diag. #    226  SItauy    vol(   0 ): 3.508E+14  Parms: VV      U1      
 cg2d: Sum(rhs),rhsMax =  -6.37598490651163E+01  3.01678877828099E-01
 Compute Stats, Diag. #    214  SIarea    vol(   0 ): 3.580E+14  Parms: SM      M1      
 Compute Stats, Diag. #    217  SIheff    vol(   0 ): 3.580E+14  Parms: SM      M1      
 Compute Stats, Diag. #    219  SIhsnow   vol(   0 ): 3.580E+14  Parms: SM      M1      
 Compute Stats, Diag. #     83  sIceLoad  vol(   0 ): 3.580E+14  Parms: SM      U1      
 Compute Stats, Diag. #    223  SIuice    vol(   0 ): 3.513E+14  Parms: UU      M1      
 Compute Stats, Diag. #    224  SIvice    vol(   0 ): 3.508E+14  Parms: VV      M1      
 Compute Stats, Diag. #    225  SItaux    vol(   0 ): 3.513E+14  Parms: UU      U1      
 Compute Stats, Diag. #    226  SItauy    vol(   0 ): 3.508E+14  Parms: VV      U1      
 cg2d: Sum(rhs),rhsMax =  -6.37502075926908E+01  3.01720265030976E-01
 Computing Diagnostic #     86  oceQnet      Counter:       4   Parms: SM      U1      
 Computing Diagnostic #     87  oceQsw       Counter:       4   Parms: SM      U1      
 Computing Diagnostic #     84  oceFWflx     Counter:       4   Parms: SM      U1      
 Computing Diagnostic #     85  oceSflux     Counter:       4   Parms: SM      U1      
 Computing Diagnostic #     80  oceTAUX      Counter:       4   Parms: UU      U1      
           Vector  Mate for  oceTAUX      Diagnostic #     81  oceTAUY  exists 
 Computing Diagnostic #     81  oceTAUY      Counter:       4   Parms: VV      U1      
           Vector  Mate for  oceTAUY      Diagnostic #     80  oceTAUX  exists 
 Computing Diagnostic #     26  THETA        Counter:       4   Parms: SMR     MR      
 Computing Diagnostic #     27  SALT         Counter:       4   Parms: SMR     MR      
 Computing Diagnostic #     30  UVEL         Counter:       4   Parms: UUR     MR      
           Vector  Mate for  UVEL         Diagnostic #     31  VVEL     exists 
 Computing Diagnostic #     31  VVEL         Counter:       4   Parms: VVR     MR      
           Vector  Mate for  VVEL         Diagnostic #     30  UVEL     exists 
 Computing Diagnostic #    214  SIarea       Counter:       4   Parms: SM      M1      
 Computing Diagnostic #    217  SIheff       Counter:       4   Parms: SM      M1      
 Computing Diagnostic #    219  SIhsnow      Counter:       4   Parms: SM      M1      
 Computing Diagnostic #     83  sIceLoad     Counter:       4   Parms: SM      U1      
 Computing Diagnostic #    223  SIuice       Counter:       4   Parms: UU      M1      
           Vector  Mate for  SIuice       Diagnostic #    224  SIvice   exists 
 Computing Diagnostic #    224  SIvice       Counter:       4   Parms: VV      M1      
           Vector  Mate for  SIvice       Diagnostic #    223  SIuice   exists 
 Computing Diagnostic #    225  SItaux       Counter:       4   Parms: UU      U1      
           Vector  Mate for  SItaux       Diagnostic #    226  SItauy   exists 
 Computing Diagnostic #    226  SItauy       Counter:       4   Parms: VV      U1      
           Vector  Mate for  SItauy       Diagnostic #    225  SItaux   exists 
 Computing Diagnostic #    285  SIareaN      Counter:       4   Parms: SM      MX      
 Computing Diagnostic #    284  SIheffN      Counter:       4   Parms: SM      MX      
 Computing Diagnostic #    286  SIhsnowN     Counter:       4   Parms: SM      MX      
 Compute Stats, Diag. #    214  SIarea    vol(   0 ): 3.580E+14  Parms: SM      M1      
 Compute Stats, Diag. #    217  SIheff    vol(   0 ): 3.580E+14  Parms: SM      M1      
 Compute Stats, Diag. #    219  SIhsnow   vol(   0 ): 3.580E+14  Parms: SM      M1      
 Compute Stats, Diag. #     83  sIceLoad  vol(   0 ): 3.580E+14  Parms: SM      U1      
 Compute Stats, Diag. #    223  SIuice    vol(   0 ): 3.513E+14  Parms: UU      M1      
 Compute Stats, Diag. #    224  SIvice    vol(   0 ): 3.508E+14  Parms: VV      M1      
 Compute Stats, Diag. #    225  SItaux    vol(   0 ): 3.513E+14  Parms: UU      U1      
 Compute Stats, Diag. #    226  SItauy    vol(   0 ): 3.508E+14  Parms: VV      U1      
 cg2d: Sum(rhs),rhsMax =  -6.37259700107796E+01  3.01762114860750E-01
 Compute Stats, Diag. #    214  SIarea    vol(   0 ): 3.580E+14  Parms: SM      M1      
 Compute Stats, Diag. #    217  SIheff    vol(   0 ): 3.580E+14  Parms: SM      M1      
 Compute Stats, Diag. #    219  SIhsnow   vol(   0 ): 3.580E+14  Parms: SM      M1      
 Compute Stats, Diag. #     83  sIceLoad  vol(   0 ): 3.580E+14  Parms: SM      U1      
 Compute Stats, Diag. #    223  SIuice    vol(   0 ): 3.513E+14  Parms: UU      M1      
 Compute Stats, Diag. #    224  SIvice    vol(   0 ): 3.508E+14  Parms: VV      M1      
 Compute Stats, Diag. #    225  SItaux    vol(   0 ): 3.513E+14  Parms: UU      U1      
 Compute Stats, Diag. #    226  SItauy    vol(   0 ): 3.508E+14  Parms: VV      U1      
 cg2d: Sum(rhs),rhsMax =  -6.36989570982732E+01  3.01804973742738E-01
 Compute Stats, Diag. #    214  SIarea    vol(   0 ): 3.580E+14  Parms: SM      M1      
 Compute Stats, Diag. #    217  SIheff    vol(   0 ): 3.580E+14  Parms: SM      M1      
 Compute Stats, Diag. #    219  SIhsnow   vol(   0 ): 3.580E+14  Parms: SM      M1      
 Compute Stats, Diag. #     83  sIceLoad  vol(   0 ): 3.580E+14  Parms: SM      U1      
 Compute Stats, Diag. #    223  SIuice    vol(   0 ): 3.513E+14  Parms: UU      M1      
 Compute Stats, Diag. #    224  SIvice    vol(   0 ): 3.508E+14  Parms: VV      M1      
 Compute Stats, Diag. #    225  SItaux    vol(   0 ): 3.513E+14  Parms: UU      U1      
 Compute Stats, Diag. #    226  SItauy    vol(   0 ): 3.508E+14  Parms: VV      U1      
 cg2d: Sum(rhs),rhsMax =  -6.36748932846836E+01  3.01849014651018E-01
 Compute Stats, Diag. #    214  SIarea    vol(   0 ): 3.580E+14  Parms: SM      M1      
 Compute Stats, Diag. #    217  SIheff    vol(   0 ): 3.580E+14  Parms: SM      M1      
 Compute Stats, Diag. #    219  SIhsnow   vol(   0 ): 3.580E+14  Parms: SM      M1      
 Compute Stats, Diag. #     83  sIceLoad  vol(   0 ): 3.580E+14  Parms: SM      U1      
 Compute Stats, Diag. #    223  SIuice    vol(   0 ): 3.513E+14  Parms: UU      M1      
 Compute Stats, Diag. #    224  SIvice    vol(   0 ): 3.508E+14  Parms: VV      M1      
 Compute Stats, Diag. #    225  SItaux    vol(   0 ): 3.513E+14  Parms: UU      U1      
 Compute Stats, Diag. #    226  SItauy    vol(   0 ): 3.508E+14  Parms: VV      U1      
 cg2d: Sum(rhs),rhsMax =  -6.36526124442523E+01  3.01895178983969E-01
(PID.TID 0000.0001)      cg2d_init_res =   3.95077807130673E-02
(PID.TID 0000.0001)      cg2d_iters(min,last) =      -1      23
(PID.TID 0000.0001)      cg2d_last_res =   2.47699450365988E-05
(PID.TID 0000.0001) // =======================================================
(PID.TID 0000.0001) // Begin MONITOR dynamic field statistics
(PID.TID 0000.0001) // =======================================================
(PID.TID 0000.0001) %MON time_tsnumber                =                  1360
(PID.TID 0000.0001) %MON time_secondsf                =   1.2240000000000E+06
(PID.TID 0000.0001) %MON dynstat_eta_max              =   1.0158978312842E+00
(PID.TID 0000.0001) %MON dynstat_eta_min              =  -1.8827174623317E+00
(PID.TID 0000.0001) %MON dynstat_eta_mean             =   2.0135354245672E-03
(PID.TID 0000.0001) %MON dynstat_eta_sd               =   6.2901071059341E-01
(PID.TID 0000.0001) %MON dynstat_eta_del2             =   4.9950122631094E-05
(PID.TID 0000.0001) %MON dynstat_uvel_max             =   6.5095377839407E-01
(PID.TID 0000.0001) %MON dynstat_uvel_min             =  -1.0170869412048E+00
(PID.TID 0000.0001) %MON dynstat_uvel_mean            =   1.3445477475259E-03
(PID.TID 0000.0001) %MON dynstat_uvel_sd              =   1.8094622282121E-02
(PID.TID 0000.0001) %MON dynstat_uvel_del2            =   7.3617572563220E-06
(PID.TID 0000.0001) %MON dynstat_vvel_max             =   6.6237397105903E-01
(PID.TID 0000.0001) %MON dynstat_vvel_min             =  -1.1628613150128E+00
(PID.TID 0000.0001) %MON dynstat_vvel_mean            =   1.1070735496910E-03
(PID.TID 0000.0001) %MON dynstat_vvel_sd              =   1.9619647644987E-02
(PID.TID 0000.0001) %MON dynstat_vvel_del2            =   7.4961386634252E-06
(PID.TID 0000.0001) %MON dynstat_wvel_max             =   3.0772082792121E-04
(PID.TID 0000.0001) %MON dynstat_wvel_min             =  -7.7857213631044E-04
(PID.TID 0000.0001) %MON dynstat_wvel_mean            =  -8.5702427208331E-10
(PID.TID 0000.0001) %MON dynstat_wvel_sd              =   1.5669814583367E-05
(PID.TID 0000.0001) %MON dynstat_wvel_del2            =   1.6176979248541E-08
(PID.TID 0000.0001) %MON dynstat_theta_max            =   3.1167022624328E+01
(PID.TID 0000.0001) %MON dynstat_theta_min            =  -2.0393622329696E+00
(PID.TID 0000.0001) %MON dynstat_theta_mean           =   3.5899688447077E+00
(PID.TID 0000.0001) %MON dynstat_theta_sd             =   4.4369144914097E+00
(PID.TID 0000.0001) %MON dynstat_theta_del2           =   8.8966410595874E-05
(PID.TID 0000.0001) %MON dynstat_salt_max             =   4.0711556580759E+01
(PID.TID 0000.0001) %MON dynstat_salt_min             =   6.5161766266938E+00
(PID.TID 0000.0001) %MON dynstat_salt_mean            =   3.4725553565403E+01
(PID.TID 0000.0001) %MON dynstat_salt_sd              =   3.7719413573603E-01
(PID.TID 0000.0001) %MON dynstat_salt_del2            =   3.7430371698641E-05
(PID.TID 0000.0001) %MON dynstat_sst_max              =   3.1166997068329E+01
(PID.TID 0000.0001) %MON dynstat_sst_min              =  -1.8041205662235E+00
(PID.TID 0000.0001) %MON dynstat_sst_mean             =   1.8436656940653E+01
(PID.TID 0000.0001) %MON dynstat_sst_sd               =   1.0331991891376E+01
(PID.TID 0000.0001) %MON dynstat_sst_del2             =   7.8804218493754E-04
(PID.TID 0000.0001) %MON dynstat_sss_max              =   3.9098137319318E+01
(PID.TID 0000.0001) %MON dynstat_sss_min              =   6.5161766266938E+00
(PID.TID 0000.0001) %MON dynstat_sss_mean             =   3.4702390120491E+01
(PID.TID 0000.0001) %MON dynstat_sss_sd               =   1.1922071843834E+00
(PID.TID 0000.0001) %MON dynstat_sss_del2             =   1.1207466831360E-03
(PID.TID 0000.0001) %MON forcing_qnet_max             =   5.9995568847656E+02
(PID.TID 0000.0001) %MON forcing_qnet_min             =  -1.0808864746094E+03
(PID.TID 0000.0001) %MON forcing_qnet_mean            =  -1.1456368305288E+01
(PID.TID 0000.0001) %MON forcing_qnet_sd              =   2.1138088667885E+02
(PID.TID 0000.0001) %MON forcing_qnet_del2            =   3.2001067304926E-01
(PID.TID 0000.0001) %MON forcing_qsw_max              =   0.0000000000000E+00
(PID.TID 0000.0001) %MON forcing_qsw_min              =  -1.0905954084931E+02
(PID.TID 0000.0001) %MON forcing_qsw_mean             =  -2.1246788349848E+01
(PID.TID 0000.0001) %MON forcing_qsw_sd               =   3.0023699690635E+01
(PID.TID 0000.0001) %MON forcing_qsw_del2             =   2.0920507529558E-02
(PID.TID 0000.0001) %MON forcing_empmr_max            =   2.8011067770422E-03
(PID.TID 0000.0001) %MON forcing_empmr_min            =  -5.1570273935795E-02
(PID.TID 0000.0001) %MON forcing_empmr_mean           =   8.0583750363774E-07
(PID.TID 0000.0001) %MON forcing_empmr_sd             =   2.6497345333003E-04
(PID.TID 0000.0001) %MON forcing_empmr_del2           =   2.8832842135723E-06
(PID.TID 0000.0001) %MON forcing_fu_max               =   1.1333438754082E+00
(PID.TID 0000.0001) %MON forcing_fu_min               =  -1.2499880194664E+00
(PID.TID 0000.0001) %MON forcing_fu_mean              =   4.1741700092231E-03
(PID.TID 0000.0001) %MON forcing_fu_sd                =   1.3123365812240E-01
(PID.TID 0000.0001) %MON forcing_fu_del2              =   1.8434550476735E-04
(PID.TID 0000.0001) %MON forcing_fv_max               =   1.1029011607170E+00
(PID.TID 0000.0001) %MON forcing_fv_min               =  -1.4295069810350E+00
(PID.TID 0000.0001) %MON forcing_fv_mean              =  -3.7452797866706E-03
(PID.TID 0000.0001) %MON forcing_fv_sd                =   1.2634791289423E-01
(PID.TID 0000.0001) %MON forcing_fv_del2              =   1.8493791245646E-04
(PID.TID 0000.0001) %MON trAdv_CFL_u_max              =   1.5122617343756E-02
(PID.TID 0000.0001) %MON trAdv_CFL_v_max              =   1.2936374076310E-02
(PID.TID 0000.0001) %MON trAdv_CFL_w_max              =   2.7391486210426E-02
(PID.TID 0000.0001) %MON advcfl_uvel_max              =   1.2617642286396E-02
(PID.TID 0000.0001) %MON advcfl_vvel_max              =   1.2578588380955E-02
(PID.TID 0000.0001) %MON advcfl_wvel_max              =   2.7931987194252E-02
(PID.TID 0000.0001) %MON advcfl_W_hf_max              =   2.8077022087428E-02
(PID.TID 0000.0001) %MON pe_b_mean                    =   5.2044947510490E-04
(PID.TID 0000.0001) %MON ke_max                       =   7.5233497785807E-01
(PID.TID 0000.0001) %MON ke_mean                      =   3.4495317967956E-04
(PID.TID 0000.0001) %MON ke_vol                       =   1.3349985980652E+18
(PID.TID 0000.0001) %MON vort_r_min                   =  -1.4527295775177E-05
(PID.TID 0000.0001) %MON vort_r_max                   =   1.9600239723951E-05
(PID.TID 0000.0001) %MON vort_a_mean                  =  -1.9727864647440E-05
(PID.TID 0000.0001) %MON vort_a_sd                    =   7.4542996968125E-05
(PID.TID 0000.0001) %MON vort_p_mean                  =  -2.1760522558718E-05
(PID.TID 0000.0001) %MON vort_p_sd                    =   9.7246079796135E-05
(PID.TID 0000.0001) %MON surfExpan_theta_mean         =   1.4880123787507E-07
(PID.TID 0000.0001) %MON surfExpan_salt_mean          =   4.7735959011125E-08
(PID.TID 0000.0001) // =======================================================
(PID.TID 0000.0001) // End MONITOR dynamic field statistics
(PID.TID 0000.0001) // =======================================================
(PID.TID 0000.0001) // =======================================================
(PID.TID 0000.0001) // Begin MONITOR SEAICE statistics
(PID.TID 0000.0001) // =======================================================
(PID.TID 0000.0001) %MON seaice_tsnumber              =                  1360
(PID.TID 0000.0001) %MON seaice_time_sec              =   1.2240000000000E+06
(PID.TID 0000.0001) %MON seaice_uice_max              =   4.0000000000000E-01
(PID.TID 0000.0001) %MON seaice_uice_min              =  -4.0000000000000E-01
(PID.TID 0000.0001) %MON seaice_uice_mean             =  -8.3054598624025E-03
(PID.TID 0000.0001) %MON seaice_uice_sd               =   1.9802383574176E-01
(PID.TID 0000.0001) %MON seaice_uice_del2             =   2.2931571122150E-04
(PID.TID 0000.0001) %MON seaice_vice_max              =   4.0000000000000E-01
(PID.TID 0000.0001) %MON seaice_vice_min              =  -4.0000000000000E-01
(PID.TID 0000.0001) %MON seaice_vice_mean             =  -2.1960776359499E-02
(PID.TID 0000.0001) %MON seaice_vice_sd               =   2.1302038025672E-01
(PID.TID 0000.0001) %MON seaice_vice_del2             =   2.3932563818061E-04
(PID.TID 0000.0001) %MON seaice_area_max              =   9.9999998451676E-01
(PID.TID 0000.0001) %MON seaice_area_min              =   0.0000000000000E+00
(PID.TID 0000.0001) %MON seaice_area_mean             =   6.3879585526748E-02
(PID.TID 0000.0001) %MON seaice_area_sd               =   2.2637674781754E-01
(PID.TID 0000.0001) %MON seaice_area_del2             =   3.6211796341854E-04
(PID.TID 0000.0001) %MON seaice_heff_max              =   2.4856126685394E+01
(PID.TID 0000.0001) %MON seaice_heff_min              =   0.0000000000000E+00
(PID.TID 0000.0001) %MON seaice_heff_mean             =   2.1085789868376E-01
(PID.TID 0000.0001) %MON seaice_heff_sd               =   1.0651353557353E+00
(PID.TID 0000.0001) %MON seaice_heff_del2             =   3.7964487672030E-03
(PID.TID 0000.0001) %MON seaice_hsnow_max             =   8.2099109752744E+00
(PID.TID 0000.0001) %MON seaice_hsnow_min             =   0.0000000000000E+00
(PID.TID 0000.0001) %MON seaice_hsnow_mean            =   2.3847103272254E-02
(PID.TID 0000.0001) %MON seaice_hsnow_sd              =   1.5565872709108E-01
(PID.TID 0000.0001) %MON seaice_hsnow_del2            =   1.2313143021538E-03
(PID.TID 0000.0001) // =======================================================
(PID.TID 0000.0001) // End MONITOR SEAICE statistics
(PID.TID 0000.0001) // =======================================================
 Computing Diagnostic #     86  oceQnet      Counter:       4   Parms: SM      U1      
 Computing Diagnostic #     87  oceQsw       Counter:       4   Parms: SM      U1      
 Computing Diagnostic #     84  oceFWflx     Counter:       4   Parms: SM      U1      
 Computing Diagnostic #     85  oceSflux     Counter:       4   Parms: SM      U1      
 Computing Diagnostic #     80  oceTAUX      Counter:       4   Parms: UU      U1      
           Vector  Mate for  oceTAUX      Diagnostic #     81  oceTAUY  exists 
 Computing Diagnostic #     81  oceTAUY      Counter:       4   Parms: VV      U1      
           Vector  Mate for  oceTAUY      Diagnostic #     80  oceTAUX  exists 
 Computing Diagnostic #     26  THETA        Counter:       4   Parms: SMR     MR      
 Computing Diagnostic #     27  SALT         Counter:       4   Parms: SMR     MR      
 Computing Diagnostic #     30  UVEL         Counter:       4   Parms: UUR     MR      
           Vector  Mate for  UVEL         Diagnostic #     31  VVEL     exists 
 Computing Diagnostic #     31  VVEL         Counter:       4   Parms: VVR     MR      
           Vector  Mate for  VVEL         Diagnostic #     30  UVEL     exists 
 Computing Diagnostic #    214  SIarea       Counter:       4   Parms: SM      M1      
 Computing Diagnostic #    217  SIheff       Counter:       4   Parms: SM      M1      
 Computing Diagnostic #    219  SIhsnow      Counter:       4   Parms: SM      M1      
 Computing Diagnostic #     83  sIceLoad     Counter:       4   Parms: SM      U1      
 Computing Diagnostic #    223  SIuice       Counter:       4   Parms: UU      M1      
           Vector  Mate for  SIuice       Diagnostic #    224  SIvice   exists 
 Computing Diagnostic #    224  SIvice       Counter:       4   Parms: VV      M1      
           Vector  Mate for  SIvice       Diagnostic #    223  SIuice   exists 
 Computing Diagnostic #    225  SItaux       Counter:       4   Parms: UU      U1      
           Vector  Mate for  SItaux       Diagnostic #    226  SItauy   exists 
 Computing Diagnostic #    226  SItauy       Counter:       4   Parms: VV      U1      
           Vector  Mate for  SItauy       Diagnostic #    225  SItaux   exists 
 Computing Diagnostic #    285  SIareaN      Counter:       4   Parms: SM      MX      
 Computing Diagnostic #    284  SIheffN      Counter:       4   Parms: SM      MX      
 Computing Diagnostic #    286  SIhsnowN     Counter:       4   Parms: SM      MX      
 Compute Stats, Diag. #    214  SIarea    vol(   0 ): 3.580E+14  Parms: SM      M1      
 Compute Stats, Diag. #    217  SIheff    vol(   0 ): 3.580E+14  Parms: SM      M1      
 Compute Stats, Diag. #    219  SIhsnow   vol(   0 ): 3.580E+14  Parms: SM      M1      
 Compute Stats, Diag. #     83  sIceLoad  vol(   0 ): 3.580E+14  Parms: SM      U1      
 Compute Stats, Diag. #    223  SIuice    vol(   0 ): 3.513E+14  Parms: UU      M1      
 Compute Stats, Diag. #    224  SIvice    vol(   0 ): 3.508E+14  Parms: VV      M1      
 Compute Stats, Diag. #    225  SItaux    vol(   0 ): 3.513E+14  Parms: UU      U1      
 Compute Stats, Diag. #    226  SItauy    vol(   0 ): 3.508E+14  Parms: VV      U1      
 cg2d: Sum(rhs),rhsMax =  -6.36325384204840E+01  3.01943796236955E-01
 Compute Stats, Diag. #    214  SIarea    vol(   0 ): 3.580E+14  Parms: SM      M1      
 Compute Stats, Diag. #    217  SIheff    vol(   0 ): 3.580E+14  Parms: SM      M1      
 Compute Stats, Diag. #    219  SIhsnow   vol(   0 ): 3.580E+14  Parms: SM      M1      
 Compute Stats, Diag. #     83  sIceLoad  vol(   0 ): 3.580E+14  Parms: SM      U1      
 Compute Stats, Diag. #    223  SIuice    vol(   0 ): 3.513E+14  Parms: UU      M1      
 Compute Stats, Diag. #    224  SIvice    vol(   0 ): 3.508E+14  Parms: VV      M1      
 Compute Stats, Diag. #    225  SItaux    vol(   0 ): 3.513E+14  Parms: UU      U1      
 Compute Stats, Diag. #    226  SItauy    vol(   0 ): 3.508E+14  Parms: VV      U1      
 cg2d: Sum(rhs),rhsMax =  -6.36018366534938E+01  3.01995351024415E-01
 Compute Stats, Diag. #    214  SIarea    vol(   0 ): 3.580E+14  Parms: SM      M1      
 Compute Stats, Diag. #    217  SIheff    vol(   0 ): 3.580E+14  Parms: SM      M1      
 Compute Stats, Diag. #    219  SIhsnow   vol(   0 ): 3.580E+14  Parms: SM      M1      
 Compute Stats, Diag. #     83  sIceLoad  vol(   0 ): 3.580E+14  Parms: SM      U1      
 Compute Stats, Diag. #    223  SIuice    vol(   0 ): 3.513E+14  Parms: UU      M1      
 Compute Stats, Diag. #    224  SIvice    vol(   0 ): 3.508E+14  Parms: VV      M1      
 Compute Stats, Diag. #    225  SItaux    vol(   0 ): 3.513E+14  Parms: UU      U1      
 Compute Stats, Diag. #    226  SItauy    vol(   0 ): 3.508E+14  Parms: VV      U1      
 cg2d: Sum(rhs),rhsMax =  -6.35677704030394E+01  3.02050059533424E-01
 Compute Stats, Diag. #    214  SIarea    vol(   0 ): 3.580E+14  Parms: SM      M1      
 Compute Stats, Diag. #    217  SIheff    vol(   0 ): 3.580E+14  Parms: SM      M1      
 Compute Stats, Diag. #    219  SIhsnow   vol(   0 ): 3.580E+14  Parms: SM      M1      
 Compute Stats, Diag. #     83  sIceLoad  vol(   0 ): 3.580E+14  Parms: SM      U1      
 Compute Stats, Diag. #    223  SIuice    vol(   0 ): 3.513E+14  Parms: UU      M1      
 Compute Stats, Diag. #    224  SIvice    vol(   0 ): 3.508E+14  Parms: VV      M1      
 Compute Stats, Diag. #    225  SItaux    vol(   0 ): 3.513E+14  Parms: UU      U1      
 Compute Stats, Diag. #    226  SItauy    vol(   0 ): 3.508E+14  Parms: VV      U1      
 cg2d: Sum(rhs),rhsMax =  -6.35301884848489E+01  3.02108101763252E-01
 Computing Diagnostic #     86  oceQnet      Counter:       4   Parms: SM      U1      
 Computing Diagnostic #     87  oceQsw       Counter:       4   Parms: SM      U1      
 Computing Diagnostic #     84  oceFWflx     Counter:       4   Parms: SM      U1      
 Computing Diagnostic #     85  oceSflux     Counter:       4   Parms: SM      U1      
 Computing Diagnostic #     80  oceTAUX      Counter:       4   Parms: UU      U1      
           Vector  Mate for  oceTAUX      Diagnostic #     81  oceTAUY  exists 
 Computing Diagnostic #     81  oceTAUY      Counter:       4   Parms: VV      U1      
           Vector  Mate for  oceTAUY      Diagnostic #     80  oceTAUX  exists 
 Computing Diagnostic #     26  THETA        Counter:       4   Parms: SMR     MR      
 Computing Diagnostic #     27  SALT         Counter:       4   Parms: SMR     MR      
 Computing Diagnostic #     30  UVEL         Counter:       4   Parms: UUR     MR      
           Vector  Mate for  UVEL         Diagnostic #     31  VVEL     exists 
 Computing Diagnostic #     31  VVEL         Counter:       4   Parms: VVR     MR      
           Vector  Mate for  VVEL         Diagnostic #     30  UVEL     exists 
 Computing Diagnostic #    214  SIarea       Counter:       4   Parms: SM      M1      
 Computing Diagnostic #    217  SIheff       Counter:       4   Parms: SM      M1      
 Computing Diagnostic #    219  SIhsnow      Counter:       4   Parms: SM      M1      
 Computing Diagnostic #     83  sIceLoad     Counter:       4   Parms: SM      U1      
 Computing Diagnostic #    223  SIuice       Counter:       4   Parms: UU      M1      
           Vector  Mate for  SIuice       Diagnostic #    224  SIvice   exists 
 Computing Diagnostic #    224  SIvice       Counter:       4   Parms: VV      M1      
           Vector  Mate for  SIvice       Diagnostic #    223  SIuice   exists 
 Computing Diagnostic #    225  SItaux       Counter:       4   Parms: UU      U1      
           Vector  Mate for  SItaux       Diagnostic #    226  SItauy   exists 
 Computing Diagnostic #    226  SItauy       Counter:       4   Parms: VV      U1      
           Vector  Mate for  SItauy       Diagnostic #    225  SItaux   exists 
 Computing Diagnostic #    285  SIareaN      Counter:       4   Parms: SM      MX      
 Computing Diagnostic #    284  SIheffN      Counter:       4   Parms: SM      MX      
 Computing Diagnostic #    286  SIhsnowN     Counter:       4   Parms: SM      MX      
 Compute Stats, Diag. #    214  SIarea    vol(   0 ): 3.580E+14  Parms: SM      M1      
 Compute Stats, Diag. #    217  SIheff    vol(   0 ): 3.580E+14  Parms: SM      M1      
 Compute Stats, Diag. #    219  SIhsnow   vol(   0 ): 3.580E+14  Parms: SM      M1      
 Compute Stats, Diag. #     83  sIceLoad  vol(   0 ): 3.580E+14  Parms: SM      U1      
 Compute Stats, Diag. #    223  SIuice    vol(   0 ): 3.513E+14  Parms: UU      M1      
 Compute Stats, Diag. #    224  SIvice    vol(   0 ): 3.508E+14  Parms: VV      M1      
 Compute Stats, Diag. #    225  SItaux    vol(   0 ): 3.513E+14  Parms: UU      U1      
 Compute Stats, Diag. #    226  SItauy    vol(   0 ): 3.508E+14  Parms: VV      U1      
 cg2d: Sum(rhs),rhsMax =  -6.35004490347242E+01  3.02169978988534E-01
 Compute Stats, Diag. #    214  SIarea    vol(   0 ): 3.580E+14  Parms: SM      M1      
 Compute Stats, Diag. #    217  SIheff    vol(   0 ): 3.580E+14  Parms: SM      M1      
 Compute Stats, Diag. #    219  SIhsnow   vol(   0 ): 3.580E+14  Parms: SM      M1      
 Compute Stats, Diag. #     83  sIceLoad  vol(   0 ): 3.580E+14  Parms: SM      U1      
 Compute Stats, Diag. #    223  SIuice    vol(   0 ): 3.513E+14  Parms: UU      M1      
 Compute Stats, Diag. #    224  SIvice    vol(   0 ): 3.508E+14  Parms: VV      M1      
 Compute Stats, Diag. #    225  SItaux    vol(   0 ): 3.513E+14  Parms: UU      U1      
 Compute Stats, Diag. #    226  SItauy    vol(   0 ): 3.508E+14  Parms: VV      U1      
 cg2d: Sum(rhs),rhsMax =  -6.34832720658015E+01  3.02235614054193E-01
 Compute Stats, Diag. #    214  SIarea    vol(   0 ): 3.580E+14  Parms: SM      M1      
 Compute Stats, Diag. #    217  SIheff    vol(   0 ): 3.580E+14  Parms: SM      M1      
 Compute Stats, Diag. #    219  SIhsnow   vol(   0 ): 3.580E+14  Parms: SM      M1      
 Compute Stats, Diag. #     83  sIceLoad  vol(   0 ): 3.580E+14  Parms: SM      U1      
 Compute Stats, Diag. #    223  SIuice    vol(   0 ): 3.513E+14  Parms: UU      M1      
 Compute Stats, Diag. #    224  SIvice    vol(   0 ): 3.508E+14  Parms: VV      M1      
 Compute Stats, Diag. #    225  SItaux    vol(   0 ): 3.513E+14  Parms: UU      U1      
 Compute Stats, Diag. #    226  SItauy    vol(   0 ): 3.508E+14  Parms: VV      U1      
 cg2d: Sum(rhs),rhsMax =  -6.34636968241316E+01  3.02305115181279E-01
 Compute Stats, Diag. #    214  SIarea    vol(   0 ): 3.580E+14  Parms: SM      M1      
 Compute Stats, Diag. #    217  SIheff    vol(   0 ): 3.580E+14  Parms: SM      M1      
 Compute Stats, Diag. #    219  SIhsnow   vol(   0 ): 3.580E+14  Parms: SM      M1      
 Compute Stats, Diag. #     83  sIceLoad  vol(   0 ): 3.580E+14  Parms: SM      U1      
 Compute Stats, Diag. #    223  SIuice    vol(   0 ): 3.513E+14  Parms: UU      M1      
 Compute Stats, Diag. #    224  SIvice    vol(   0 ): 3.508E+14  Parms: VV      M1      
 Compute Stats, Diag. #    225  SItaux    vol(   0 ): 3.513E+14  Parms: UU      U1      
 Compute Stats, Diag. #    226  SItauy    vol(   0 ): 3.508E+14  Parms: VV      U1      
 cg2d: Sum(rhs),rhsMax =  -6.34474802553257E+01  3.02378409920414E-01
(PID.TID 0000.0001)      cg2d_init_res =   4.06942780452930E-02
(PID.TID 0000.0001)      cg2d_iters(min,last) =      -1      23
(PID.TID 0000.0001)      cg2d_last_res =   2.61011544025506E-05
(PID.TID 0000.0001) // =======================================================
(PID.TID 0000.0001) // Begin MONITOR dynamic field statistics
(PID.TID 0000.0001) // =======================================================
(PID.TID 0000.0001) %MON time_tsnumber                =                  1368
(PID.TID 0000.0001) %MON time_secondsf                =   1.2312000000000E+06
(PID.TID 0000.0001) %MON dynstat_eta_max              =   1.0166656585330E+00
(PID.TID 0000.0001) %MON dynstat_eta_min              =  -1.8849974368836E+00
(PID.TID 0000.0001) %MON dynstat_eta_mean             =   2.0070464382828E-03
(PID.TID 0000.0001) %MON dynstat_eta_sd               =   6.2925472834751E-01
(PID.TID 0000.0001) %MON dynstat_eta_del2             =   4.9958397742045E-05
(PID.TID 0000.0001) %MON dynstat_uvel_max             =   6.3486901649776E-01
(PID.TID 0000.0001) %MON dynstat_uvel_min             =  -1.0244398599623E+00
(PID.TID 0000.0001) %MON dynstat_uvel_mean            =   1.3433422486074E-03
(PID.TID 0000.0001) %MON dynstat_uvel_sd              =   1.8118065335406E-02
(PID.TID 0000.0001) %MON dynstat_uvel_del2            =   7.3471136963529E-06
(PID.TID 0000.0001) %MON dynstat_vvel_max             =   6.6055455179326E-01
(PID.TID 0000.0001) %MON dynstat_vvel_min             =  -1.1720773033447E+00
(PID.TID 0000.0001) %MON dynstat_vvel_mean            =   1.0951496606934E-03
(PID.TID 0000.0001) %MON dynstat_vvel_sd              =   1.9618267294160E-02
(PID.TID 0000.0001) %MON dynstat_vvel_del2            =   7.4929497091368E-06
(PID.TID 0000.0001) %MON dynstat_wvel_max             =   3.7923082096670E-04
(PID.TID 0000.0001) %MON dynstat_wvel_min             =  -7.7963472004498E-04
(PID.TID 0000.0001) %MON dynstat_wvel_mean            =  -9.7444516641384E-10
(PID.TID 0000.0001) %MON dynstat_wvel_sd              =   1.5573836058744E-05
(PID.TID 0000.0001) %MON dynstat_wvel_del2            =   1.6222135248075E-08
(PID.TID 0000.0001) %MON dynstat_theta_max            =   3.1165712665443E+01
(PID.TID 0000.0001) %MON dynstat_theta_min            =  -2.0393535267722E+00
(PID.TID 0000.0001) %MON dynstat_theta_mean           =   3.5899691977072E+00
(PID.TID 0000.0001) %MON dynstat_theta_sd             =   4.4369421463848E+00
(PID.TID 0000.0001) %MON dynstat_theta_del2           =   8.8941607177628E-05
(PID.TID 0000.0001) %MON dynstat_salt_max             =   4.0711556716016E+01
(PID.TID 0000.0001) %MON dynstat_salt_min             =   6.6462309240422E+00
(PID.TID 0000.0001) %MON dynstat_salt_mean            =   3.4725553622854E+01
(PID.TID 0000.0001) %MON dynstat_salt_sd              =   3.7719653044090E-01
(PID.TID 0000.0001) %MON dynstat_salt_del2            =   3.7538381202840E-05
(PID.TID 0000.0001) %MON dynstat_sst_max              =   3.1165712665443E+01
(PID.TID 0000.0001) %MON dynstat_sst_min              =  -1.8066067905114E+00
(PID.TID 0000.0001) %MON dynstat_sst_mean             =   1.8436701954827E+01
(PID.TID 0000.0001) %MON dynstat_sst_sd               =   1.0333383508032E+01
(PID.TID 0000.0001) %MON dynstat_sst_del2             =   7.8914819609101E-04
(PID.TID 0000.0001) %MON dynstat_sss_max              =   3.9098121444173E+01
(PID.TID 0000.0001) %MON dynstat_sss_min              =   6.6462309240422E+00
(PID.TID 0000.0001) %MON dynstat_sss_mean             =   3.4702411986921E+01
(PID.TID 0000.0001) %MON dynstat_sss_sd               =   1.1924389778426E+00
(PID.TID 0000.0001) %MON dynstat_sss_del2             =   1.1254524842112E-03
(PID.TID 0000.0001) %MON forcing_qnet_max             =   8.5738219344071E+02
(PID.TID 0000.0001) %MON forcing_qnet_min             =  -1.0966462730169E+03
(PID.TID 0000.0001) %MON forcing_qnet_mean            =   6.9357478642134E+00
(PID.TID 0000.0001) %MON forcing_qnet_sd              =   1.9072946984988E+02
(PID.TID 0000.0001) %MON forcing_qnet_del2            =   3.3021775650455E-01
(PID.TID 0000.0001) %MON forcing_qsw_max              =   0.0000000000000E+00
(PID.TID 0000.0001) %MON forcing_qsw_min              =  -1.0580302880678E+02
(PID.TID 0000.0001) %MON forcing_qsw_mean             =  -1.8557739775228E+01
(PID.TID 0000.0001) %MON forcing_qsw_sd               =   2.7562400991290E+01
(PID.TID 0000.0001) %MON forcing_qsw_del2             =   2.2133676638899E-02
(PID.TID 0000.0001) %MON forcing_empmr_max            =   2.2646756842732E-03
(PID.TID 0000.0001) %MON forcing_empmr_min            =  -4.7739014029503E-02
(PID.TID 0000.0001) %MON forcing_empmr_mean           =   5.8650926418256E-07
(PID.TID 0000.0001) %MON forcing_empmr_sd             =   2.3717458101391E-04
(PID.TID 0000.0001) %MON forcing_empmr_del2           =   3.4003279692038E-06
(PID.TID 0000.0001) %MON forcing_fu_max               =   1.1277805566788E+00
(PID.TID 0000.0001) %MON forcing_fu_min               =  -1.1462633013725E+00
(PID.TID 0000.0001) %MON forcing_fu_mean              =   4.4058536691144E-03
(PID.TID 0000.0001) %MON forcing_fu_sd                =   1.3220572756337E-01
(PID.TID 0000.0001) %MON forcing_fu_del2              =   1.8442274336368E-04
(PID.TID 0000.0001) %MON forcing_fv_max               =   1.0972658395767E+00
(PID.TID 0000.0001) %MON forcing_fv_min               =  -1.4450152119362E+00
(PID.TID 0000.0001) %MON forcing_fv_mean              =  -4.1773319861289E-03
(PID.TID 0000.0001) %MON forcing_fv_sd                =   1.2517693014415E-01
(PID.TID 0000.0001) %MON forcing_fv_del2              =   1.8855457247706E-04
(PID.TID 0000.0001) %MON trAdv_CFL_u_max              =   1.4843356213125E-02
(PID.TID 0000.0001) %MON trAdv_CFL_v_max              =   1.3280060333873E-02
(PID.TID 0000.0001) %MON trAdv_CFL_w_max              =   2.8520456265519E-02
(PID.TID 0000.0001) %MON advcfl_uvel_max              =   1.2612552907299E-02
(PID.TID 0000.0001) %MON advcfl_vvel_max              =   1.2491477015572E-02
(PID.TID 0000.0001) %MON advcfl_wvel_max              =   2.9101283717925E-02
(PID.TID 0000.0001) %MON advcfl_W_hf_max              =   2.9251283509638E-02
(PID.TID 0000.0001) %MON pe_b_mean                    =   5.2085332115216E-04
(PID.TID 0000.0001) %MON ke_max                       =   7.6338376661362E-01
(PID.TID 0000.0001) %MON ke_mean                      =   3.4532212188752E-04
(PID.TID 0000.0001) %MON ke_vol                       =   1.3349985956734E+18
(PID.TID 0000.0001) %MON vort_r_min                   =  -1.3883738817479E-05
(PID.TID 0000.0001) %MON vort_r_max                   =   1.9746393489056E-05
(PID.TID 0000.0001) %MON vort_a_mean                  =  -1.9727864647440E-05
(PID.TID 0000.0001) %MON vort_a_sd                    =   7.4542995400573E-05
(PID.TID 0000.0001) %MON vort_p_mean                  =  -2.1760522544159E-05
(PID.TID 0000.0001) %MON vort_p_sd                    =   9.7246084901061E-05
(PID.TID 0000.0001) %MON surfExpan_theta_mean         =   1.3753845026840E-07
(PID.TID 0000.0001) %MON surfExpan_salt_mean          =   3.7583443564660E-08
(PID.TID 0000.0001) // =======================================================
(PID.TID 0000.0001) // End MONITOR dynamic field statistics
(PID.TID 0000.0001) // =======================================================
(PID.TID 0000.0001) // =======================================================
(PID.TID 0000.0001) // Begin MONITOR SEAICE statistics
(PID.TID 0000.0001) // =======================================================
(PID.TID 0000.0001) %MON seaice_tsnumber              =                  1368
(PID.TID 0000.0001) %MON seaice_time_sec              =   1.2312000000000E+06
(PID.TID 0000.0001) %MON seaice_uice_max              =   4.0000000000000E-01
(PID.TID 0000.0001) %MON seaice_uice_min              =  -4.0000000000000E-01
(PID.TID 0000.0001) %MON seaice_uice_mean             =  -8.3054598624025E-03
(PID.TID 0000.0001) %MON seaice_uice_sd               =   1.9802383574176E-01
(PID.TID 0000.0001) %MON seaice_uice_del2             =   2.2931571122150E-04
(PID.TID 0000.0001) %MON seaice_vice_max              =   4.0000000000000E-01
(PID.TID 0000.0001) %MON seaice_vice_min              =  -4.0000000000000E-01
(PID.TID 0000.0001) %MON seaice_vice_mean             =  -2.1960776359499E-02
(PID.TID 0000.0001) %MON seaice_vice_sd               =   2.1302038025672E-01
(PID.TID 0000.0001) %MON seaice_vice_del2             =   2.3932563818061E-04
(PID.TID 0000.0001) %MON seaice_area_max              =   9.9999996868428E-01
(PID.TID 0000.0001) %MON seaice_area_min              =   0.0000000000000E+00
(PID.TID 0000.0001) %MON seaice_area_mean             =   6.3853640775080E-02
(PID.TID 0000.0001) %MON seaice_area_sd               =   2.2633710786539E-01
(PID.TID 0000.0001) %MON seaice_area_del2             =   3.6185024304113E-04
(PID.TID 0000.0001) %MON seaice_heff_max              =   2.4854900809878E+01
(PID.TID 0000.0001) %MON seaice_heff_min              =   0.0000000000000E+00
(PID.TID 0000.0001) %MON seaice_heff_mean             =   2.1084029780807E-01
(PID.TID 0000.0001) %MON seaice_heff_sd               =   1.0651280337116E+00
(PID.TID 0000.0001) %MON seaice_heff_del2             =   3.7959078040675E-03
(PID.TID 0000.0001) %MON seaice_hsnow_max             =   8.2094999172550E+00
(PID.TID 0000.0001) %MON seaice_hsnow_min             =   0.0000000000000E+00
(PID.TID 0000.0001) %MON seaice_hsnow_mean            =   2.3841569645845E-02
(PID.TID 0000.0001) %MON seaice_hsnow_sd              =   1.5565376900672E-01
(PID.TID 0000.0001) %MON seaice_hsnow_del2            =   1.2312305010595E-03
(PID.TID 0000.0001) // =======================================================
(PID.TID 0000.0001) // End MONITOR SEAICE statistics
(PID.TID 0000.0001) // =======================================================
 Computing Diagnostic #     86  oceQnet      Counter:       4   Parms: SM      U1      
 Computing Diagnostic #     87  oceQsw       Counter:       4   Parms: SM      U1      
 Computing Diagnostic #     84  oceFWflx     Counter:       4   Parms: SM      U1      
 Computing Diagnostic #     85  oceSflux     Counter:       4   Parms: SM      U1      
 Computing Diagnostic #     80  oceTAUX      Counter:       4   Parms: UU      U1      
           Vector  Mate for  oceTAUX      Diagnostic #     81  oceTAUY  exists 
 Computing Diagnostic #     81  oceTAUY      Counter:       4   Parms: VV      U1      
           Vector  Mate for  oceTAUY      Diagnostic #     80  oceTAUX  exists 
 Computing Diagnostic #     26  THETA        Counter:       4   Parms: SMR     MR      
 Computing Diagnostic #     27  SALT         Counter:       4   Parms: SMR     MR      
 Computing Diagnostic #     30  UVEL         Counter:       4   Parms: UUR     MR      
           Vector  Mate for  UVEL         Diagnostic #     31  VVEL     exists 
 Computing Diagnostic #     31  VVEL         Counter:       4   Parms: VVR     MR      
           Vector  Mate for  VVEL         Diagnostic #     30  UVEL     exists 
 Computing Diagnostic #    214  SIarea       Counter:       4   Parms: SM      M1      
 Computing Diagnostic #    217  SIheff       Counter:       4   Parms: SM      M1      
 Computing Diagnostic #    219  SIhsnow      Counter:       4   Parms: SM      M1      
 Computing Diagnostic #     83  sIceLoad     Counter:       4   Parms: SM      U1      
 Computing Diagnostic #    223  SIuice       Counter:       4   Parms: UU      M1      
           Vector  Mate for  SIuice       Diagnostic #    224  SIvice   exists 
 Computing Diagnostic #    224  SIvice       Counter:       4   Parms: VV      M1      
           Vector  Mate for  SIvice       Diagnostic #    223  SIuice   exists 
 Computing Diagnostic #    225  SItaux       Counter:       4   Parms: UU      U1      
           Vector  Mate for  SItaux       Diagnostic #    226  SItauy   exists 
 Computing Diagnostic #    226  SItauy       Counter:       4   Parms: VV      U1      
           Vector  Mate for  SItauy       Diagnostic #    225  SItaux   exists 
 Computing Diagnostic #    285  SIareaN      Counter:       4   Parms: SM      MX      
 Computing Diagnostic #    284  SIheffN      Counter:       4   Parms: SM      MX      
 Computing Diagnostic #    286  SIhsnowN     Counter:       4   Parms: SM      MX      
 Compute Stats, Diag. #    214  SIarea    vol(   0 ): 3.580E+14  Parms: SM      M1      
 Compute Stats, Diag. #    217  SIheff    vol(   0 ): 3.580E+14  Parms: SM      M1      
 Compute Stats, Diag. #    219  SIhsnow   vol(   0 ): 3.580E+14  Parms: SM      M1      
 Compute Stats, Diag. #     83  sIceLoad  vol(   0 ): 3.580E+14  Parms: SM      U1      
 Compute Stats, Diag. #    223  SIuice    vol(   0 ): 3.513E+14  Parms: UU      M1      
 Compute Stats, Diag. #    224  SIvice    vol(   0 ): 3.508E+14  Parms: VV      M1      
 Compute Stats, Diag. #    225  SItaux    vol(   0 ): 3.513E+14  Parms: UU      U1      
 Compute Stats, Diag. #    226  SItauy    vol(   0 ): 3.508E+14  Parms: VV      U1      
 cg2d: Sum(rhs),rhsMax =  -6.34320805116782E+01  3.02455416261976E-01
 Compute Stats, Diag. #    214  SIarea    vol(   0 ): 3.580E+14  Parms: SM      M1      
 Compute Stats, Diag. #    217  SIheff    vol(   0 ): 3.580E+14  Parms: SM      M1      
 Compute Stats, Diag. #    219  SIhsnow   vol(   0 ): 3.580E+14  Parms: SM      M1      
 Compute Stats, Diag. #     83  sIceLoad  vol(   0 ): 3.580E+14  Parms: SM      U1      
 Compute Stats, Diag. #    223  SIuice    vol(   0 ): 3.513E+14  Parms: UU      M1      
 Compute Stats, Diag. #    224  SIvice    vol(   0 ): 3.508E+14  Parms: VV      M1      
 Compute Stats, Diag. #    225  SItaux    vol(   0 ): 3.513E+14  Parms: UU      U1      
 Compute Stats, Diag. #    226  SItauy    vol(   0 ): 3.508E+14  Parms: VV      U1      
 cg2d: Sum(rhs),rhsMax =  -6.34169306340977E+01  3.02535832127759E-01
 Compute Stats, Diag. #    214  SIarea    vol(   0 ): 3.580E+14  Parms: SM      M1      
 Compute Stats, Diag. #    217  SIheff    vol(   0 ): 3.580E+14  Parms: SM      M1      
 Compute Stats, Diag. #    219  SIhsnow   vol(   0 ): 3.580E+14  Parms: SM      M1      
 Compute Stats, Diag. #     83  sIceLoad  vol(   0 ): 3.580E+14  Parms: SM      U1      
 Compute Stats, Diag. #    223  SIuice    vol(   0 ): 3.513E+14  Parms: UU      M1      
 Compute Stats, Diag. #    224  SIvice    vol(   0 ): 3.508E+14  Parms: VV      M1      
 Compute Stats, Diag. #    225  SItaux    vol(   0 ): 3.513E+14  Parms: UU      U1      
 Compute Stats, Diag. #    226  SItauy    vol(   0 ): 3.508E+14  Parms: VV      U1      
 cg2d: Sum(rhs),rhsMax =  -6.34000878232905E+01  3.02619124208446E-01
 Compute Stats, Diag. #    214  SIarea    vol(   0 ): 3.580E+14  Parms: SM      M1      
 Compute Stats, Diag. #    217  SIheff    vol(   0 ): 3.580E+14  Parms: SM      M1      
 Compute Stats, Diag. #    219  SIhsnow   vol(   0 ): 3.580E+14  Parms: SM      M1      
 Compute Stats, Diag. #     83  sIceLoad  vol(   0 ): 3.580E+14  Parms: SM      U1      
 Compute Stats, Diag. #    223  SIuice    vol(   0 ): 3.513E+14  Parms: UU      M1      
 Compute Stats, Diag. #    224  SIvice    vol(   0 ): 3.508E+14  Parms: VV      M1      
 Compute Stats, Diag. #    225  SItaux    vol(   0 ): 3.513E+14  Parms: UU      U1      
 Compute Stats, Diag. #    226  SItauy    vol(   0 ): 3.508E+14  Parms: VV      U1      
 cg2d: Sum(rhs),rhsMax =  -6.33846484198105E+01  3.02706257907061E-01
 Computing Diagnostic #     86  oceQnet      Counter:       4   Parms: SM      U1      
 Computing Diagnostic #     87  oceQsw       Counter:       4   Parms: SM      U1      
 Computing Diagnostic #     84  oceFWflx     Counter:       4   Parms: SM      U1      
 Computing Diagnostic #     85  oceSflux     Counter:       4   Parms: SM      U1      
 Computing Diagnostic #     80  oceTAUX      Counter:       4   Parms: UU      U1      
           Vector  Mate for  oceTAUX      Diagnostic #     81  oceTAUY  exists 
 Computing Diagnostic #     81  oceTAUY      Counter:       4   Parms: VV      U1      
           Vector  Mate for  oceTAUY      Diagnostic #     80  oceTAUX  exists 
 Computing Diagnostic #     26  THETA        Counter:       4   Parms: SMR     MR      
 Computing Diagnostic #     27  SALT         Counter:       4   Parms: SMR     MR      
 Computing Diagnostic #     30  UVEL         Counter:       4   Parms: UUR     MR      
           Vector  Mate for  UVEL         Diagnostic #     31  VVEL     exists 
 Computing Diagnostic #     31  VVEL         Counter:       4   Parms: VVR     MR      
           Vector  Mate for  VVEL         Diagnostic #     30  UVEL     exists 
 Computing Diagnostic #    214  SIarea       Counter:       4   Parms: SM      M1      
 Computing Diagnostic #    217  SIheff       Counter:       4   Parms: SM      M1      
 Computing Diagnostic #    219  SIhsnow      Counter:       4   Parms: SM      M1      
 Computing Diagnostic #     83  sIceLoad     Counter:       4   Parms: SM      U1      
 Computing Diagnostic #    223  SIuice       Counter:       4   Parms: UU      M1      
           Vector  Mate for  SIuice       Diagnostic #    224  SIvice   exists 
 Computing Diagnostic #    224  SIvice       Counter:       4   Parms: VV      M1      
           Vector  Mate for  SIvice       Diagnostic #    223  SIuice   exists 
 Computing Diagnostic #    225  SItaux       Counter:       4   Parms: UU      U1      
           Vector  Mate for  SItaux       Diagnostic #    226  SItauy   exists 
 Computing Diagnostic #    226  SItauy       Counter:       4   Parms: VV      U1      
           Vector  Mate for  SItauy       Diagnostic #    225  SItaux   exists 
 Computing Diagnostic #    285  SIareaN      Counter:       4   Parms: SM      MX      
 Computing Diagnostic #    284  SIheffN      Counter:       4   Parms: SM      MX      
 Computing Diagnostic #    286  SIhsnowN     Counter:       4   Parms: SM      MX      
 Compute Stats, Diag. #    214  SIarea    vol(   0 ): 3.580E+14  Parms: SM      M1      
 Compute Stats, Diag. #    217  SIheff    vol(   0 ): 3.580E+14  Parms: SM      M1      
 Compute Stats, Diag. #    219  SIhsnow   vol(   0 ): 3.580E+14  Parms: SM      M1      
 Compute Stats, Diag. #     83  sIceLoad  vol(   0 ): 3.580E+14  Parms: SM      U1      
 Compute Stats, Diag. #    223  SIuice    vol(   0 ): 3.513E+14  Parms: UU      M1      
 Compute Stats, Diag. #    224  SIvice    vol(   0 ): 3.508E+14  Parms: VV      M1      
 Compute Stats, Diag. #    225  SItaux    vol(   0 ): 3.513E+14  Parms: UU      U1      
 Compute Stats, Diag. #    226  SItauy    vol(   0 ): 3.508E+14  Parms: VV      U1      
 cg2d: Sum(rhs),rhsMax =  -6.33704640576065E+01  3.02794563071623E-01
 Compute Stats, Diag. #    214  SIarea    vol(   0 ): 3.580E+14  Parms: SM      M1      
 Compute Stats, Diag. #    217  SIheff    vol(   0 ): 3.580E+14  Parms: SM      M1      
 Compute Stats, Diag. #    219  SIhsnow   vol(   0 ): 3.580E+14  Parms: SM      M1      
 Compute Stats, Diag. #     83  sIceLoad  vol(   0 ): 3.580E+14  Parms: SM      U1      
 Compute Stats, Diag. #    223  SIuice    vol(   0 ): 3.513E+14  Parms: UU      M1      
 Compute Stats, Diag. #    224  SIvice    vol(   0 ): 3.508E+14  Parms: VV      M1      
 Compute Stats, Diag. #    225  SItaux    vol(   0 ): 3.513E+14  Parms: UU      U1      
 Compute Stats, Diag. #    226  SItauy    vol(   0 ): 3.508E+14  Parms: VV      U1      
 cg2d: Sum(rhs),rhsMax =  -6.33554288537930E+01  3.02885781704947E-01
 Compute Stats, Diag. #    214  SIarea    vol(   0 ): 3.580E+14  Parms: SM      M1      
 Compute Stats, Diag. #    217  SIheff    vol(   0 ): 3.580E+14  Parms: SM      M1      
 Compute Stats, Diag. #    219  SIhsnow   vol(   0 ): 3.580E+14  Parms: SM      M1      
 Compute Stats, Diag. #     83  sIceLoad  vol(   0 ): 3.580E+14  Parms: SM      U1      
 Compute Stats, Diag. #    223  SIuice    vol(   0 ): 3.513E+14  Parms: UU      M1      
 Compute Stats, Diag. #    224  SIvice    vol(   0 ): 3.508E+14  Parms: VV      M1      
 Compute Stats, Diag. #    225  SItaux    vol(   0 ): 3.513E+14  Parms: UU      U1      
 Compute Stats, Diag. #    226  SItauy    vol(   0 ): 3.508E+14  Parms: VV      U1      
 cg2d: Sum(rhs),rhsMax =  -6.33387424266715E+01  3.02977458264098E-01
 Compute Stats, Diag. #    214  SIarea    vol(   0 ): 3.580E+14  Parms: SM      M1      
 Compute Stats, Diag. #    217  SIheff    vol(   0 ): 3.580E+14  Parms: SM      M1      
 Compute Stats, Diag. #    219  SIhsnow   vol(   0 ): 3.580E+14  Parms: SM      M1      
 Compute Stats, Diag. #     83  sIceLoad  vol(   0 ): 3.580E+14  Parms: SM      U1      
 Compute Stats, Diag. #    223  SIuice    vol(   0 ): 3.513E+14  Parms: UU      M1      
 Compute Stats, Diag. #    224  SIvice    vol(   0 ): 3.508E+14  Parms: VV      M1      
 Compute Stats, Diag. #    225  SItaux    vol(   0 ): 3.513E+14  Parms: UU      U1      
 Compute Stats, Diag. #    226  SItauy    vol(   0 ): 3.508E+14  Parms: VV      U1      
 cg2d: Sum(rhs),rhsMax =  -6.33288847542726E+01  3.03071357904491E-01
(PID.TID 0000.0001)      cg2d_init_res =   4.14746004088298E-02
(PID.TID 0000.0001)      cg2d_iters(min,last) =      -1      23
(PID.TID 0000.0001)      cg2d_last_res =   2.48242450399016E-05
(PID.TID 0000.0001) // =======================================================
(PID.TID 0000.0001) // Begin MONITOR dynamic field statistics
(PID.TID 0000.0001) // =======================================================
(PID.TID 0000.0001) %MON time_tsnumber                =                  1376
(PID.TID 0000.0001) %MON time_secondsf                =   1.2384000000000E+06
(PID.TID 0000.0001) %MON dynstat_eta_max              =   1.0175007799032E+00
(PID.TID 0000.0001) %MON dynstat_eta_min              =  -1.8877375828751E+00
(PID.TID 0000.0001) %MON dynstat_eta_mean             =   2.0032948838155E-03
(PID.TID 0000.0001) %MON dynstat_eta_sd               =   6.2942054076111E-01
(PID.TID 0000.0001) %MON dynstat_eta_del2             =   4.9857549627283E-05
(PID.TID 0000.0001) %MON dynstat_uvel_max             =   6.2924347442364E-01
(PID.TID 0000.0001) %MON dynstat_uvel_min             =  -1.0266019853763E+00
(PID.TID 0000.0001) %MON dynstat_uvel_mean            =   1.3456977013800E-03
(PID.TID 0000.0001) %MON dynstat_uvel_sd              =   1.8134379241245E-02
(PID.TID 0000.0001) %MON dynstat_uvel_del2            =   7.3392362561592E-06
(PID.TID 0000.0001) %MON dynstat_vvel_max             =   6.6087226217588E-01
(PID.TID 0000.0001) %MON dynstat_vvel_min             =  -1.1789969148611E+00
(PID.TID 0000.0001) %MON dynstat_vvel_mean            =   1.0819245762727E-03
(PID.TID 0000.0001) %MON dynstat_vvel_sd              =   1.9618913990613E-02
(PID.TID 0000.0001) %MON dynstat_vvel_del2            =   7.4883224487521E-06
(PID.TID 0000.0001) %MON dynstat_wvel_max             =   4.0860662831792E-04
(PID.TID 0000.0001) %MON dynstat_wvel_min             =  -7.8017891035749E-04
(PID.TID 0000.0001) %MON dynstat_wvel_mean            =  -1.6110899043064E-09
(PID.TID 0000.0001) %MON dynstat_wvel_sd              =   1.5499178795203E-05
(PID.TID 0000.0001) %MON dynstat_wvel_del2            =   1.6230060324414E-08
(PID.TID 0000.0001) %MON dynstat_theta_max            =   3.1169013569099E+01
(PID.TID 0000.0001) %MON dynstat_theta_min            =  -2.0393447224513E+00
(PID.TID 0000.0001) %MON dynstat_theta_mean           =   3.5899607952138E+00
(PID.TID 0000.0001) %MON dynstat_theta_sd             =   4.4369365435845E+00
(PID.TID 0000.0001) %MON dynstat_theta_del2           =   8.8921073797955E-05
(PID.TID 0000.0001) %MON dynstat_salt_max             =   4.0711556824836E+01
(PID.TID 0000.0001) %MON dynstat_salt_min             =   6.7853433457320E+00
(PID.TID 0000.0001) %MON dynstat_salt_mean            =   3.4725553673734E+01
(PID.TID 0000.0001) %MON dynstat_salt_sd              =   3.7719841622809E-01
(PID.TID 0000.0001) %MON dynstat_salt_del2            =   3.7650762956513E-05
(PID.TID 0000.0001) %MON dynstat_sst_max              =   3.1169013569099E+01
(PID.TID 0000.0001) %MON dynstat_sst_min              =  -1.8088344633042E+00
(PID.TID 0000.0001) %MON dynstat_sst_mean             =   1.8433991330046E+01
(PID.TID 0000.0001) %MON dynstat_sst_sd               =   1.0334246992722E+01
(PID.TID 0000.0001) %MON dynstat_sst_del2             =   7.9030217242940E-04
(PID.TID 0000.0001) %MON dynstat_sss_max              =   3.9098097889799E+01
(PID.TID 0000.0001) %MON dynstat_sss_min              =   6.7853433457320E+00
(PID.TID 0000.0001) %MON dynstat_sss_mean             =   3.4702399425492E+01
(PID.TID 0000.0001) %MON dynstat_sss_sd               =   1.1926180168727E+00
(PID.TID 0000.0001) %MON dynstat_sss_del2             =   1.1302008230183E-03
(PID.TID 0000.0001) %MON forcing_qnet_max             =   7.7056225585938E+02
(PID.TID 0000.0001) %MON forcing_qnet_min             =  -1.1606788129025E+03
(PID.TID 0000.0001) %MON forcing_qnet_mean            =   2.4579050364439E+01
(PID.TID 0000.0001) %MON forcing_qnet_sd              =   1.7775314448202E+02
(PID.TID 0000.0001) %MON forcing_qnet_del2            =   3.3025730552432E-01
(PID.TID 0000.0001) %MON forcing_qsw_max              =   0.0000000000000E+00
(PID.TID 0000.0001) %MON forcing_qsw_min              =  -1.1000250325485E+02
(PID.TID 0000.0001) %MON forcing_qsw_mean             =  -1.6228425902182E+01
(PID.TID 0000.0001) %MON forcing_qsw_sd               =   2.5986978057896E+01
(PID.TID 0000.0001) %MON forcing_qsw_del2             =   2.0796819075815E-02
(PID.TID 0000.0001) %MON forcing_empmr_max            =   6.7233614390716E-04
(PID.TID 0000.0001) %MON forcing_empmr_min            =  -3.5770617425442E-02
(PID.TID 0000.0001) %MON forcing_empmr_mean           =   3.5652524612714E-07
(PID.TID 0000.0001) %MON forcing_empmr_sd             =   2.2970278701730E-04
(PID.TID 0000.0001) %MON forcing_empmr_del2           =   3.1967448620508E-06
(PID.TID 0000.0001) %MON forcing_fu_max               =   1.1539578437805E+00
(PID.TID 0000.0001) %MON forcing_fu_min               =  -1.0844474434853E+00
(PID.TID 0000.0001) %MON forcing_fu_mean              =   5.2033506294695E-03
(PID.TID 0000.0001) %MON forcing_fu_sd                =   1.3268033060789E-01
(PID.TID 0000.0001) %MON forcing_fu_del2              =   1.8183034761810E-04
(PID.TID 0000.0001) %MON forcing_fv_max               =   1.0826227664948E+00
(PID.TID 0000.0001) %MON forcing_fv_min               =  -1.3286910525639E+00
(PID.TID 0000.0001) %MON forcing_fv_mean              =  -5.2926792591337E-03
(PID.TID 0000.0001) %MON forcing_fv_sd                =   1.2429671650979E-01
(PID.TID 0000.0001) %MON forcing_fv_del2              =   1.8938549969357E-04
(PID.TID 0000.0001) %MON trAdv_CFL_u_max              =   1.4334445536039E-02
(PID.TID 0000.0001) %MON trAdv_CFL_v_max              =   1.3231975029456E-02
(PID.TID 0000.0001) %MON trAdv_CFL_w_max              =   2.9778164175411E-02
(PID.TID 0000.0001) %MON advcfl_uvel_max              =   1.2608143941154E-02
(PID.TID 0000.0001) %MON advcfl_vvel_max              =   1.2413425486572E-02
(PID.TID 0000.0001) %MON advcfl_wvel_max              =   3.0476767472122E-02
(PID.TID 0000.0001) %MON advcfl_W_hf_max              =   3.0632984608449E-02
(PID.TID 0000.0001) %MON pe_b_mean                    =   5.2112783126603E-04
(PID.TID 0000.0001) %MON ke_max                       =   7.7178845187422E-01
(PID.TID 0000.0001) %MON ke_mean                      =   3.4560866368496E-04
(PID.TID 0000.0001) %MON ke_vol                       =   1.3349985942583E+18
(PID.TID 0000.0001) %MON vort_r_min                   =  -1.3425735798480E-05
(PID.TID 0000.0001) %MON vort_r_max                   =   1.9871327736033E-05
(PID.TID 0000.0001) %MON vort_a_mean                  =  -1.9727864647440E-05
(PID.TID 0000.0001) %MON vort_a_sd                    =   7.4542993781703E-05
(PID.TID 0000.0001) %MON vort_p_mean                  =  -2.1760522536282E-05
(PID.TID 0000.0001) %MON vort_p_sd                    =   9.7246118010241E-05
(PID.TID 0000.0001) %MON surfExpan_theta_mean         =   1.2524736004694E-07
(PID.TID 0000.0001) %MON surfExpan_salt_mean          =   3.5520616152263E-08
(PID.TID 0000.0001) // =======================================================
(PID.TID 0000.0001) // End MONITOR dynamic field statistics
(PID.TID 0000.0001) // =======================================================
(PID.TID 0000.0001) // =======================================================
(PID.TID 0000.0001) // Begin MONITOR SEAICE statistics
(PID.TID 0000.0001) // =======================================================
(PID.TID 0000.0001) %MON seaice_tsnumber              =                  1376
(PID.TID 0000.0001) %MON seaice_time_sec              =   1.2384000000000E+06
(PID.TID 0000.0001) %MON seaice_uice_max              =   4.0000000000000E-01
(PID.TID 0000.0001) %MON seaice_uice_min              =  -4.0000000000000E-01
(PID.TID 0000.0001) %MON seaice_uice_mean             =  -8.3054598624025E-03
(PID.TID 0000.0001) %MON seaice_uice_sd               =   1.9802383574176E-01
(PID.TID 0000.0001) %MON seaice_uice_del2             =   2.2931571122150E-04
(PID.TID 0000.0001) %MON seaice_vice_max              =   4.0000000000000E-01
(PID.TID 0000.0001) %MON seaice_vice_min              =  -4.0000000000000E-01
(PID.TID 0000.0001) %MON seaice_vice_mean             =  -2.1960776359499E-02
(PID.TID 0000.0001) %MON seaice_vice_sd               =   2.1302038025672E-01
(PID.TID 0000.0001) %MON seaice_vice_del2             =   2.3932563818061E-04
(PID.TID 0000.0001) %MON seaice_area_max              =   9.9999993853271E-01
(PID.TID 0000.0001) %MON seaice_area_min              =   0.0000000000000E+00
(PID.TID 0000.0001) %MON seaice_area_mean             =   6.3831144759283E-02
(PID.TID 0000.0001) %MON seaice_area_sd               =   2.2630317488692E-01
(PID.TID 0000.0001) %MON seaice_area_del2             =   3.6153139600439E-04
(PID.TID 0000.0001) %MON seaice_heff_max              =   2.4853679052147E+01
(PID.TID 0000.0001) %MON seaice_heff_min              =   0.0000000000000E+00
(PID.TID 0000.0001) %MON seaice_heff_mean             =   2.1082389909093E-01
(PID.TID 0000.0001) %MON seaice_heff_sd               =   1.0651211741625E+00
(PID.TID 0000.0001) %MON seaice_heff_del2             =   3.7953562364426E-03
(PID.TID 0000.0001) %MON seaice_hsnow_max             =   8.2090927579848E+00
(PID.TID 0000.0001) %MON seaice_hsnow_min             =   0.0000000000000E+00
(PID.TID 0000.0001) %MON seaice_hsnow_mean            =   2.3840558642245E-02
(PID.TID 0000.0001) %MON seaice_hsnow_sd              =   1.5564954945534E-01
(PID.TID 0000.0001) %MON seaice_hsnow_del2            =   1.2311447669334E-03
(PID.TID 0000.0001) // =======================================================
(PID.TID 0000.0001) // End MONITOR SEAICE statistics
(PID.TID 0000.0001) // =======================================================
 Computing Diagnostic #     86  oceQnet      Counter:       4   Parms: SM      U1      
 Computing Diagnostic #     87  oceQsw       Counter:       4   Parms: SM      U1      
 Computing Diagnostic #     84  oceFWflx     Counter:       4   Parms: SM      U1      
 Computing Diagnostic #     85  oceSflux     Counter:       4   Parms: SM      U1      
 Computing Diagnostic #     80  oceTAUX      Counter:       4   Parms: UU      U1      
           Vector  Mate for  oceTAUX      Diagnostic #     81  oceTAUY  exists 
 Computing Diagnostic #     81  oceTAUY      Counter:       4   Parms: VV      U1      
           Vector  Mate for  oceTAUY      Diagnostic #     80  oceTAUX  exists 
 Computing Diagnostic #     26  THETA        Counter:       4   Parms: SMR     MR      
 Computing Diagnostic #     27  SALT         Counter:       4   Parms: SMR     MR      
 Computing Diagnostic #     30  UVEL         Counter:       4   Parms: UUR     MR      
           Vector  Mate for  UVEL         Diagnostic #     31  VVEL     exists 
 Computing Diagnostic #     31  VVEL         Counter:       4   Parms: VVR     MR      
           Vector  Mate for  VVEL         Diagnostic #     30  UVEL     exists 
 Computing Diagnostic #    214  SIarea       Counter:       4   Parms: SM      M1      
 Computing Diagnostic #    217  SIheff       Counter:       4   Parms: SM      M1      
 Computing Diagnostic #    219  SIhsnow      Counter:       4   Parms: SM      M1      
 Computing Diagnostic #     83  sIceLoad     Counter:       4   Parms: SM      U1      
 Computing Diagnostic #    223  SIuice       Counter:       4   Parms: UU      M1      
           Vector  Mate for  SIuice       Diagnostic #    224  SIvice   exists 
 Computing Diagnostic #    224  SIvice       Counter:       4   Parms: VV      M1      
           Vector  Mate for  SIvice       Diagnostic #    223  SIuice   exists 
 Computing Diagnostic #    225  SItaux       Counter:       4   Parms: UU      U1      
           Vector  Mate for  SItaux       Diagnostic #    226  SItauy   exists 
 Computing Diagnostic #    226  SItauy       Counter:       4   Parms: VV      U1      
           Vector  Mate for  SItauy       Diagnostic #    225  SItaux   exists 
 Computing Diagnostic #    285  SIareaN      Counter:       4   Parms: SM      MX      
 Computing Diagnostic #    284  SIheffN      Counter:       4   Parms: SM      MX      
 Computing Diagnostic #    286  SIhsnowN     Counter:       4   Parms: SM      MX      
 Compute Stats, Diag. #    214  SIarea    vol(   0 ): 3.580E+14  Parms: SM      M1      
 Compute Stats, Diag. #    217  SIheff    vol(   0 ): 3.580E+14  Parms: SM      M1      
 Compute Stats, Diag. #    219  SIhsnow   vol(   0 ): 3.580E+14  Parms: SM      M1      
 Compute Stats, Diag. #     83  sIceLoad  vol(   0 ): 3.580E+14  Parms: SM      U1      
 Compute Stats, Diag. #    223  SIuice    vol(   0 ): 3.513E+14  Parms: UU      M1      
 Compute Stats, Diag. #    224  SIvice    vol(   0 ): 3.508E+14  Parms: VV      M1      
 Compute Stats, Diag. #    225  SItaux    vol(   0 ): 3.513E+14  Parms: UU      U1      
 Compute Stats, Diag. #    226  SItauy    vol(   0 ): 3.508E+14  Parms: VV      U1      
 cg2d: Sum(rhs),rhsMax =  -6.33181059855121E+01  3.03165596505505E-01
 Compute Stats, Diag. #    214  SIarea    vol(   0 ): 3.580E+14  Parms: SM      M1      
 Compute Stats, Diag. #    217  SIheff    vol(   0 ): 3.580E+14  Parms: SM      M1      
 Compute Stats, Diag. #    219  SIhsnow   vol(   0 ): 3.580E+14  Parms: SM      M1      
 Compute Stats, Diag. #     83  sIceLoad  vol(   0 ): 3.580E+14  Parms: SM      U1      
 Compute Stats, Diag. #    223  SIuice    vol(   0 ): 3.513E+14  Parms: UU      M1      
 Compute Stats, Diag. #    224  SIvice    vol(   0 ): 3.508E+14  Parms: VV      M1      
 Compute Stats, Diag. #    225  SItaux    vol(   0 ): 3.513E+14  Parms: UU      U1      
 Compute Stats, Diag. #    226  SItauy    vol(   0 ): 3.508E+14  Parms: VV      U1      
 cg2d: Sum(rhs),rhsMax =  -6.33131056801580E+01  3.03259979121220E-01
 Compute Stats, Diag. #    214  SIarea    vol(   0 ): 3.580E+14  Parms: SM      M1      
 Compute Stats, Diag. #    217  SIheff    vol(   0 ): 3.580E+14  Parms: SM      M1      
 Compute Stats, Diag. #    219  SIhsnow   vol(   0 ): 3.580E+14  Parms: SM      M1      
 Compute Stats, Diag. #     83  sIceLoad  vol(   0 ): 3.580E+14  Parms: SM      U1      
 Compute Stats, Diag. #    223  SIuice    vol(   0 ): 3.513E+14  Parms: UU      M1      
 Compute Stats, Diag. #    224  SIvice    vol(   0 ): 3.508E+14  Parms: VV      M1      
 Compute Stats, Diag. #    225  SItaux    vol(   0 ): 3.513E+14  Parms: UU      U1      
 Compute Stats, Diag. #    226  SItauy    vol(   0 ): 3.508E+14  Parms: VV      U1      
 cg2d: Sum(rhs),rhsMax =  -6.33030713023752E+01  3.03355502131715E-01
 Compute Stats, Diag. #    214  SIarea    vol(   0 ): 3.580E+14  Parms: SM      M1      
 Compute Stats, Diag. #    217  SIheff    vol(   0 ): 3.580E+14  Parms: SM      M1      
 Compute Stats, Diag. #    219  SIhsnow   vol(   0 ): 3.580E+14  Parms: SM      M1      
 Compute Stats, Diag. #     83  sIceLoad  vol(   0 ): 3.580E+14  Parms: SM      U1      
 Compute Stats, Diag. #    223  SIuice    vol(   0 ): 3.513E+14  Parms: UU      M1      
 Compute Stats, Diag. #    224  SIvice    vol(   0 ): 3.508E+14  Parms: VV      M1      
 Compute Stats, Diag. #    225  SItaux    vol(   0 ): 3.513E+14  Parms: UU      U1      
 Compute Stats, Diag. #    226  SItauy    vol(   0 ): 3.508E+14  Parms: VV      U1      
 cg2d: Sum(rhs),rhsMax =  -6.32990237348125E+01  3.03449501483974E-01
 Computing Diagnostic #     86  oceQnet      Counter:       4   Parms: SM      U1      
 Computing Diagnostic #     87  oceQsw       Counter:       4   Parms: SM      U1      
 Computing Diagnostic #     84  oceFWflx     Counter:       4   Parms: SM      U1      
 Computing Diagnostic #     85  oceSflux     Counter:       4   Parms: SM      U1      
 Computing Diagnostic #     80  oceTAUX      Counter:       4   Parms: UU      U1      
           Vector  Mate for  oceTAUX      Diagnostic #     81  oceTAUY  exists 
 Computing Diagnostic #     81  oceTAUY      Counter:       4   Parms: VV      U1      
           Vector  Mate for  oceTAUY      Diagnostic #     80  oceTAUX  exists 
 Computing Diagnostic #     26  THETA        Counter:       4   Parms: SMR     MR      
 Computing Diagnostic #     27  SALT         Counter:       4   Parms: SMR     MR      
 Computing Diagnostic #     30  UVEL         Counter:       4   Parms: UUR     MR      
           Vector  Mate for  UVEL         Diagnostic #     31  VVEL     exists 
 Computing Diagnostic #     31  VVEL         Counter:       4   Parms: VVR     MR      
           Vector  Mate for  VVEL         Diagnostic #     30  UVEL     exists 
 Computing Diagnostic #    214  SIarea       Counter:       4   Parms: SM      M1      
 Computing Diagnostic #    217  SIheff       Counter:       4   Parms: SM      M1      
 Computing Diagnostic #    219  SIhsnow      Counter:       4   Parms: SM      M1      
 Computing Diagnostic #     83  sIceLoad     Counter:       4   Parms: SM      U1      
 Computing Diagnostic #    223  SIuice       Counter:       4   Parms: UU      M1      
           Vector  Mate for  SIuice       Diagnostic #    224  SIvice   exists 
 Computing Diagnostic #    224  SIvice       Counter:       4   Parms: VV      M1      
           Vector  Mate for  SIvice       Diagnostic #    223  SIuice   exists 
 Computing Diagnostic #    225  SItaux       Counter:       4   Parms: UU      U1      
           Vector  Mate for  SItaux       Diagnostic #    226  SItauy   exists 
 Computing Diagnostic #    226  SItauy       Counter:       4   Parms: VV      U1      
           Vector  Mate for  SItauy       Diagnostic #    225  SItaux   exists 
 Computing Diagnostic #    285  SIareaN      Counter:       4   Parms: SM      MX      
 Computing Diagnostic #    284  SIheffN      Counter:       4   Parms: SM      MX      
 Computing Diagnostic #    286  SIhsnowN     Counter:       4   Parms: SM      MX      
 Compute Stats, Diag. #    214  SIarea    vol(   0 ): 3.580E+14  Parms: SM      M1      
 Compute Stats, Diag. #    217  SIheff    vol(   0 ): 3.580E+14  Parms: SM      M1      
 Compute Stats, Diag. #    219  SIhsnow   vol(   0 ): 3.580E+14  Parms: SM      M1      
 Compute Stats, Diag. #     83  sIceLoad  vol(   0 ): 3.580E+14  Parms: SM      U1      
 Compute Stats, Diag. #    223  SIuice    vol(   0 ): 3.513E+14  Parms: UU      M1      
 Compute Stats, Diag. #    224  SIvice    vol(   0 ): 3.508E+14  Parms: VV      M1      
 Compute Stats, Diag. #    225  SItaux    vol(   0 ): 3.513E+14  Parms: UU      U1      
 Compute Stats, Diag. #    226  SItauy    vol(   0 ): 3.508E+14  Parms: VV      U1      
 cg2d: Sum(rhs),rhsMax =  -6.32951900934676E+01  3.03543263972330E-01
 Compute Stats, Diag. #    214  SIarea    vol(   0 ): 3.580E+14  Parms: SM      M1      
 Compute Stats, Diag. #    217  SIheff    vol(   0 ): 3.580E+14  Parms: SM      M1      
 Compute Stats, Diag. #    219  SIhsnow   vol(   0 ): 3.580E+14  Parms: SM      M1      
 Compute Stats, Diag. #     83  sIceLoad  vol(   0 ): 3.580E+14  Parms: SM      U1      
 Compute Stats, Diag. #    223  SIuice    vol(   0 ): 3.513E+14  Parms: UU      M1      
 Compute Stats, Diag. #    224  SIvice    vol(   0 ): 3.508E+14  Parms: VV      M1      
 Compute Stats, Diag. #    225  SItaux    vol(   0 ): 3.513E+14  Parms: UU      U1      
 Compute Stats, Diag. #    226  SItauy    vol(   0 ): 3.508E+14  Parms: VV      U1      
 cg2d: Sum(rhs),rhsMax =  -6.32840409047244E+01  3.03635735346190E-01
 Compute Stats, Diag. #    214  SIarea    vol(   0 ): 3.580E+14  Parms: SM      M1      
 Compute Stats, Diag. #    217  SIheff    vol(   0 ): 3.580E+14  Parms: SM      M1      
 Compute Stats, Diag. #    219  SIhsnow   vol(   0 ): 3.580E+14  Parms: SM      M1      
 Compute Stats, Diag. #     83  sIceLoad  vol(   0 ): 3.580E+14  Parms: SM      U1      
 Compute Stats, Diag. #    223  SIuice    vol(   0 ): 3.513E+14  Parms: UU      M1      
 Compute Stats, Diag. #    224  SIvice    vol(   0 ): 3.508E+14  Parms: VV      M1      
 Compute Stats, Diag. #    225  SItaux    vol(   0 ): 3.513E+14  Parms: UU      U1      
 Compute Stats, Diag. #    226  SItauy    vol(   0 ): 3.508E+14  Parms: VV      U1      
 cg2d: Sum(rhs),rhsMax =  -6.32706103894336E+01  3.03726463803217E-01
 Compute Stats, Diag. #    214  SIarea    vol(   0 ): 3.580E+14  Parms: SM      M1      
 Compute Stats, Diag. #    217  SIheff    vol(   0 ): 3.580E+14  Parms: SM      M1      
 Compute Stats, Diag. #    219  SIhsnow   vol(   0 ): 3.580E+14  Parms: SM      M1      
 Compute Stats, Diag. #     83  sIceLoad  vol(   0 ): 3.580E+14  Parms: SM      U1      
 Compute Stats, Diag. #    223  SIuice    vol(   0 ): 3.513E+14  Parms: UU      M1      
 Compute Stats, Diag. #    224  SIvice    vol(   0 ): 3.508E+14  Parms: VV      M1      
 Compute Stats, Diag. #    225  SItaux    vol(   0 ): 3.513E+14  Parms: UU      U1      
 Compute Stats, Diag. #    226  SItauy    vol(   0 ): 3.508E+14  Parms: VV      U1      
 cg2d: Sum(rhs),rhsMax =  -6.32594308689794E+01  3.03814613745826E-01
(PID.TID 0000.0001)      cg2d_init_res =   3.96575043865073E-02
(PID.TID 0000.0001)      cg2d_iters(min,last) =      -1      23
(PID.TID 0000.0001)      cg2d_last_res =   2.22332943039907E-05
(PID.TID 0000.0001) // =======================================================
(PID.TID 0000.0001) // Begin MONITOR dynamic field statistics
(PID.TID 0000.0001) // =======================================================
(PID.TID 0000.0001) %MON time_tsnumber                =                  1384
(PID.TID 0000.0001) %MON time_secondsf                =   1.2456000000000E+06
(PID.TID 0000.0001) %MON dynstat_eta_max              =   1.0181082064980E+00
(PID.TID 0000.0001) %MON dynstat_eta_min              =  -1.8904493942596E+00
(PID.TID 0000.0001) %MON dynstat_eta_mean             =   2.0010978356025E-03
(PID.TID 0000.0001) %MON dynstat_eta_sd               =   6.2950823721873E-01
(PID.TID 0000.0001) %MON dynstat_eta_del2             =   4.9742175680907E-05
(PID.TID 0000.0001) %MON dynstat_uvel_max             =   6.2716268411506E-01
(PID.TID 0000.0001) %MON dynstat_uvel_min             =  -1.0261054685398E+00
(PID.TID 0000.0001) %MON dynstat_uvel_mean            =   1.3486264243217E-03
(PID.TID 0000.0001) %MON dynstat_uvel_sd              =   1.8136983791944E-02
(PID.TID 0000.0001) %MON dynstat_uvel_del2            =   7.3332743214318E-06
(PID.TID 0000.0001) %MON dynstat_vvel_max             =   6.6251367571449E-01
(PID.TID 0000.0001) %MON dynstat_vvel_min             =  -1.1835526131676E+00
(PID.TID 0000.0001) %MON dynstat_vvel_mean            =   1.0659743066274E-03
(PID.TID 0000.0001) %MON dynstat_vvel_sd              =   1.9625630514595E-02
(PID.TID 0000.0001) %MON dynstat_vvel_del2            =   7.4752500075440E-06
(PID.TID 0000.0001) %MON dynstat_wvel_max             =   3.9302162307381E-04
(PID.TID 0000.0001) %MON dynstat_wvel_min             =  -7.7981136371727E-04
(PID.TID 0000.0001) %MON dynstat_wvel_mean            =  -2.7217114607925E-09
(PID.TID 0000.0001) %MON dynstat_wvel_sd              =   1.5446646649409E-05
(PID.TID 0000.0001) %MON dynstat_wvel_del2            =   1.6155740954144E-08
(PID.TID 0000.0001) %MON dynstat_theta_max            =   3.1164019312361E+01
(PID.TID 0000.0001) %MON dynstat_theta_min            =  -2.0393351748130E+00
(PID.TID 0000.0001) %MON dynstat_theta_mean           =   3.5899445983879E+00
(PID.TID 0000.0001) %MON dynstat_theta_sd             =   4.4368983676497E+00
(PID.TID 0000.0001) %MON dynstat_theta_del2           =   8.8900373995342E-05
(PID.TID 0000.0001) %MON dynstat_salt_max             =   4.0711556888531E+01
(PID.TID 0000.0001) %MON dynstat_salt_min             =   6.9179402276031E+00
(PID.TID 0000.0001) %MON dynstat_salt_mean            =   3.4725553706395E+01
(PID.TID 0000.0001) %MON dynstat_salt_sd              =   3.7719993310519E-01
(PID.TID 0000.0001) %MON dynstat_salt_del2            =   3.7704276468889E-05
(PID.TID 0000.0001) %MON dynstat_sst_max              =   3.1164019312361E+01
(PID.TID 0000.0001) %MON dynstat_sst_min              =  -1.8089392681933E+00
(PID.TID 0000.0001) %MON dynstat_sst_mean             =   1.8429147053887E+01
(PID.TID 0000.0001) %MON dynstat_sst_sd               =   1.0334541389011E+01
(PID.TID 0000.0001) %MON dynstat_sst_del2             =   7.9068744401876E-04
(PID.TID 0000.0001) %MON dynstat_sss_max              =   3.9098058735940E+01
(PID.TID 0000.0001) %MON dynstat_sss_min              =   6.9179402276031E+00
(PID.TID 0000.0001) %MON dynstat_sss_mean             =   3.4702392817230E+01
(PID.TID 0000.0001) %MON dynstat_sss_sd               =   1.1927754166865E+00
(PID.TID 0000.0001) %MON dynstat_sss_del2             =   1.1316246013390E-03
(PID.TID 0000.0001) %MON forcing_qnet_max             =   5.3346734619141E+02
(PID.TID 0000.0001) %MON forcing_qnet_min             =  -1.2810202833848E+03
(PID.TID 0000.0001) %MON forcing_qnet_mean            =   4.0037413426004E+01
(PID.TID 0000.0001) %MON forcing_qnet_sd              =   1.7204275073789E+02
(PID.TID 0000.0001) %MON forcing_qnet_del2            =   3.2291490820366E-01
(PID.TID 0000.0001) %MON forcing_qsw_max              =   0.0000000000000E+00
(PID.TID 0000.0001) %MON forcing_qsw_min              =  -1.0366366838614E+02
(PID.TID 0000.0001) %MON forcing_qsw_mean             =  -1.4018528455204E+01
(PID.TID 0000.0001) %MON forcing_qsw_sd               =   2.5620065444227E+01
(PID.TID 0000.0001) %MON forcing_qsw_del2             =   1.8685127365510E-02
(PID.TID 0000.0001) %MON forcing_empmr_max            =   1.0120985098183E-03
(PID.TID 0000.0001) %MON forcing_empmr_min            =  -3.7553440779448E-02
(PID.TID 0000.0001) %MON forcing_empmr_mean           =   4.0433290135370E-07
(PID.TID 0000.0001) %MON forcing_empmr_sd             =   2.1417919964255E-04
(PID.TID 0000.0001) %MON forcing_empmr_del2           =   2.7227533818215E-06
(PID.TID 0000.0001) %MON forcing_fu_max               =   1.1194152832031E+00
(PID.TID 0000.0001) %MON forcing_fu_min               =  -1.0197395682335E+00
(PID.TID 0000.0001) %MON forcing_fu_mean              =   6.0679190275748E-03
(PID.TID 0000.0001) %MON forcing_fu_sd                =   1.3259803041124E-01
(PID.TID 0000.0001) %MON forcing_fu_del2              =   1.7791263768015E-04
(PID.TID 0000.0001) %MON forcing_fv_max               =   1.1294954419136E+00
(PID.TID 0000.0001) %MON forcing_fv_min               =  -1.1024866474020E+00
(PID.TID 0000.0001) %MON forcing_fv_mean              =  -6.1555749087357E-03
(PID.TID 0000.0001) %MON forcing_fv_sd                =   1.2281608141182E-01
(PID.TID 0000.0001) %MON forcing_fv_del2              =   1.8532596954523E-04
(PID.TID 0000.0001) %MON trAdv_CFL_u_max              =   1.4309886490753E-02
(PID.TID 0000.0001) %MON trAdv_CFL_v_max              =   1.3229604591398E-02
(PID.TID 0000.0001) %MON trAdv_CFL_w_max              =   2.9379031047449E-02
(PID.TID 0000.0001) %MON advcfl_uvel_max              =   1.2583991895476E-02
(PID.TID 0000.0001) %MON advcfl_vvel_max              =   1.2341184920644E-02
(PID.TID 0000.0001) %MON advcfl_wvel_max              =   3.0046620407600E-02
(PID.TID 0000.0001) %MON advcfl_W_hf_max              =   3.0200007479099E-02
(PID.TID 0000.0001) %MON pe_b_mean                    =   5.2127304495179E-04
(PID.TID 0000.0001) %MON ke_max                       =   7.7754727784114E-01
(PID.TID 0000.0001) %MON ke_mean                      =   3.4576861324588E-04
(PID.TID 0000.0001) %MON ke_vol                       =   1.3349985934867E+18
(PID.TID 0000.0001) %MON vort_r_min                   =  -1.3790339502511E-05
(PID.TID 0000.0001) %MON vort_r_max                   =   1.8117860005329E-05
(PID.TID 0000.0001) %MON vort_a_mean                  =  -1.9727864647440E-05
(PID.TID 0000.0001) %MON vort_a_sd                    =   7.4542991300357E-05
(PID.TID 0000.0001) %MON vort_p_mean                  =  -2.1760522535026E-05
(PID.TID 0000.0001) %MON vort_p_sd                    =   9.7246172996450E-05
(PID.TID 0000.0001) %MON surfExpan_theta_mean         =   1.0143174841929E-07
(PID.TID 0000.0001) %MON surfExpan_salt_mean          =   3.6294072625028E-08
(PID.TID 0000.0001) // =======================================================
(PID.TID 0000.0001) // End MONITOR dynamic field statistics
(PID.TID 0000.0001) // =======================================================
(PID.TID 0000.0001) // =======================================================
(PID.TID 0000.0001) // Begin MONITOR SEAICE statistics
(PID.TID 0000.0001) // =======================================================
(PID.TID 0000.0001) %MON seaice_tsnumber              =                  1384
(PID.TID 0000.0001) %MON seaice_time_sec              =   1.2456000000000E+06
(PID.TID 0000.0001) %MON seaice_uice_max              =   4.0000000000000E-01
(PID.TID 0000.0001) %MON seaice_uice_min              =  -4.0000000000000E-01
(PID.TID 0000.0001) %MON seaice_uice_mean             =  -8.3054598624025E-03
(PID.TID 0000.0001) %MON seaice_uice_sd               =   1.9802383574176E-01
(PID.TID 0000.0001) %MON seaice_uice_del2             =   2.2931571122150E-04
(PID.TID 0000.0001) %MON seaice_vice_max              =   4.0000000000000E-01
(PID.TID 0000.0001) %MON seaice_vice_min              =  -4.0000000000000E-01
(PID.TID 0000.0001) %MON seaice_vice_mean             =  -2.1960776359499E-02
(PID.TID 0000.0001) %MON seaice_vice_sd               =   2.1302038025672E-01
(PID.TID 0000.0001) %MON seaice_vice_del2             =   2.3932563818061E-04
(PID.TID 0000.0001) %MON seaice_area_max              =   9.9999993853271E-01
(PID.TID 0000.0001) %MON seaice_area_min              =   0.0000000000000E+00
(PID.TID 0000.0001) %MON seaice_area_mean             =   6.3813809047275E-02
(PID.TID 0000.0001) %MON seaice_area_sd               =   2.2627812388585E-01
(PID.TID 0000.0001) %MON seaice_area_del2             =   3.6122283853647E-04
(PID.TID 0000.0001) %MON seaice_heff_max              =   2.4852480916597E+01
(PID.TID 0000.0001) %MON seaice_heff_min              =   0.0000000000000E+00
(PID.TID 0000.0001) %MON seaice_heff_mean             =   2.1080963917429E-01
(PID.TID 0000.0001) %MON seaice_heff_sd               =   1.0651149213341E+00
(PID.TID 0000.0001) %MON seaice_heff_del2             =   3.7948033437107E-03
(PID.TID 0000.0001) %MON seaice_hsnow_max             =   8.2086933416431E+00
(PID.TID 0000.0001) %MON seaice_hsnow_min             =   0.0000000000000E+00
(PID.TID 0000.0001) %MON seaice_hsnow_mean            =   2.3842113796416E-02
(PID.TID 0000.0001) %MON seaice_hsnow_sd              =   1.5564562225232E-01
(PID.TID 0000.0001) %MON seaice_hsnow_del2            =   1.2310603625260E-03
(PID.TID 0000.0001) // =======================================================
(PID.TID 0000.0001) // End MONITOR SEAICE statistics
(PID.TID 0000.0001) // =======================================================
 Computing Diagnostic #     86  oceQnet      Counter:       4   Parms: SM      U1      
 Computing Diagnostic #     87  oceQsw       Counter:       4   Parms: SM      U1      
 Computing Diagnostic #     84  oceFWflx     Counter:       4   Parms: SM      U1      
 Computing Diagnostic #     85  oceSflux     Counter:       4   Parms: SM      U1      
 Computing Diagnostic #     80  oceTAUX      Counter:       4   Parms: UU      U1      
           Vector  Mate for  oceTAUX      Diagnostic #     81  oceTAUY  exists 
 Computing Diagnostic #     81  oceTAUY      Counter:       4   Parms: VV      U1      
           Vector  Mate for  oceTAUY      Diagnostic #     80  oceTAUX  exists 
 Computing Diagnostic #     26  THETA        Counter:       4   Parms: SMR     MR      
 Computing Diagnostic #     27  SALT         Counter:       4   Parms: SMR     MR      
 Computing Diagnostic #     30  UVEL         Counter:       4   Parms: UUR     MR      
           Vector  Mate for  UVEL         Diagnostic #     31  VVEL     exists 
 Computing Diagnostic #     31  VVEL         Counter:       4   Parms: VVR     MR      
           Vector  Mate for  VVEL         Diagnostic #     30  UVEL     exists 
 Computing Diagnostic #    214  SIarea       Counter:       4   Parms: SM      M1      
 Computing Diagnostic #    217  SIheff       Counter:       4   Parms: SM      M1      
 Computing Diagnostic #    219  SIhsnow      Counter:       4   Parms: SM      M1      
 Computing Diagnostic #     83  sIceLoad     Counter:       4   Parms: SM      U1      
 Computing Diagnostic #    223  SIuice       Counter:       4   Parms: UU      M1      
           Vector  Mate for  SIuice       Diagnostic #    224  SIvice   exists 
 Computing Diagnostic #    224  SIvice       Counter:       4   Parms: VV      M1      
           Vector  Mate for  SIvice       Diagnostic #    223  SIuice   exists 
 Computing Diagnostic #    225  SItaux       Counter:       4   Parms: UU      U1      
           Vector  Mate for  SItaux       Diagnostic #    226  SItauy   exists 
 Computing Diagnostic #    226  SItauy       Counter:       4   Parms: VV      U1      
           Vector  Mate for  SItauy       Diagnostic #    225  SItaux   exists 
 Computing Diagnostic #    285  SIareaN      Counter:       4   Parms: SM      MX      
 Computing Diagnostic #    284  SIheffN      Counter:       4   Parms: SM      MX      
 Computing Diagnostic #    286  SIhsnowN     Counter:       4   Parms: SM      MX      
 Compute Stats, Diag. #    214  SIarea    vol(   0 ): 3.580E+14  Parms: SM      M1      
 Compute Stats, Diag. #    217  SIheff    vol(   0 ): 3.580E+14  Parms: SM      M1      
 Compute Stats, Diag. #    219  SIhsnow   vol(   0 ): 3.580E+14  Parms: SM      M1      
 Compute Stats, Diag. #     83  sIceLoad  vol(   0 ): 3.580E+14  Parms: SM      U1      
 Compute Stats, Diag. #    223  SIuice    vol(   0 ): 3.513E+14  Parms: UU      M1      
 Compute Stats, Diag. #    224  SIvice    vol(   0 ): 3.508E+14  Parms: VV      M1      
 Compute Stats, Diag. #    225  SItaux    vol(   0 ): 3.513E+14  Parms: UU      U1      
 Compute Stats, Diag. #    226  SItauy    vol(   0 ): 3.508E+14  Parms: VV      U1      
 cg2d: Sum(rhs),rhsMax =  -6.32510490691174E+01  3.03899605725050E-01
 Compute Stats, Diag. #    214  SIarea    vol(   0 ): 3.580E+14  Parms: SM      M1      
 Compute Stats, Diag. #    217  SIheff    vol(   0 ): 3.580E+14  Parms: SM      M1      
 Compute Stats, Diag. #    219  SIhsnow   vol(   0 ): 3.580E+14  Parms: SM      M1      
 Compute Stats, Diag. #     83  sIceLoad  vol(   0 ): 3.580E+14  Parms: SM      U1      
 Compute Stats, Diag. #    223  SIuice    vol(   0 ): 3.513E+14  Parms: UU      M1      
 Compute Stats, Diag. #    224  SIvice    vol(   0 ): 3.508E+14  Parms: VV      M1      
 Compute Stats, Diag. #    225  SItaux    vol(   0 ): 3.513E+14  Parms: UU      U1      
 Compute Stats, Diag. #    226  SItauy    vol(   0 ): 3.508E+14  Parms: VV      U1      
 cg2d: Sum(rhs),rhsMax =  -6.32473238379776E+01  3.03981333933374E-01
 Compute Stats, Diag. #    214  SIarea    vol(   0 ): 3.580E+14  Parms: SM      M1      
 Compute Stats, Diag. #    217  SIheff    vol(   0 ): 3.580E+14  Parms: SM      M1      
 Compute Stats, Diag. #    219  SIhsnow   vol(   0 ): 3.580E+14  Parms: SM      M1      
 Compute Stats, Diag. #     83  sIceLoad  vol(   0 ): 3.580E+14  Parms: SM      U1      
 Compute Stats, Diag. #    223  SIuice    vol(   0 ): 3.513E+14  Parms: UU      M1      
 Compute Stats, Diag. #    224  SIvice    vol(   0 ): 3.508E+14  Parms: VV      M1      
 Compute Stats, Diag. #    225  SItaux    vol(   0 ): 3.513E+14  Parms: UU      U1      
 Compute Stats, Diag. #    226  SItauy    vol(   0 ): 3.508E+14  Parms: VV      U1      
 cg2d: Sum(rhs),rhsMax =  -6.32445271772648E+01  3.04059073619945E-01
 Compute Stats, Diag. #    214  SIarea    vol(   0 ): 3.580E+14  Parms: SM      M1      
 Compute Stats, Diag. #    217  SIheff    vol(   0 ): 3.580E+14  Parms: SM      M1      
 Compute Stats, Diag. #    219  SIhsnow   vol(   0 ): 3.580E+14  Parms: SM      M1      
 Compute Stats, Diag. #     83  sIceLoad  vol(   0 ): 3.580E+14  Parms: SM      U1      
 Compute Stats, Diag. #    223  SIuice    vol(   0 ): 3.513E+14  Parms: UU      M1      
 Compute Stats, Diag. #    224  SIvice    vol(   0 ): 3.508E+14  Parms: VV      M1      
 Compute Stats, Diag. #    225  SItaux    vol(   0 ): 3.513E+14  Parms: UU      U1      
 Compute Stats, Diag. #    226  SItauy    vol(   0 ): 3.508E+14  Parms: VV      U1      
 cg2d: Sum(rhs),rhsMax =  -6.32363046730151E+01  3.04133104399965E-01
 Computing Diagnostic #     86  oceQnet      Counter:       4   Parms: SM      U1      
 Computing Diagnostic #     87  oceQsw       Counter:       4   Parms: SM      U1      
 Computing Diagnostic #     84  oceFWflx     Counter:       4   Parms: SM      U1      
 Computing Diagnostic #     85  oceSflux     Counter:       4   Parms: SM      U1      
 Computing Diagnostic #     80  oceTAUX      Counter:       4   Parms: UU      U1      
           Vector  Mate for  oceTAUX      Diagnostic #     81  oceTAUY  exists 
 Computing Diagnostic #     81  oceTAUY      Counter:       4   Parms: VV      U1      
           Vector  Mate for  oceTAUY      Diagnostic #     80  oceTAUX  exists 
 Computing Diagnostic #     26  THETA        Counter:       4   Parms: SMR     MR      
 Computing Diagnostic #     27  SALT         Counter:       4   Parms: SMR     MR      
 Computing Diagnostic #     30  UVEL         Counter:       4   Parms: UUR     MR      
           Vector  Mate for  UVEL         Diagnostic #     31  VVEL     exists 
 Computing Diagnostic #     31  VVEL         Counter:       4   Parms: VVR     MR      
           Vector  Mate for  VVEL         Diagnostic #     30  UVEL     exists 
 Computing Diagnostic #    214  SIarea       Counter:       4   Parms: SM      M1      
 Computing Diagnostic #    217  SIheff       Counter:       4   Parms: SM      M1      
 Computing Diagnostic #    219  SIhsnow      Counter:       4   Parms: SM      M1      
 Computing Diagnostic #     83  sIceLoad     Counter:       4   Parms: SM      U1      
 Computing Diagnostic #    223  SIuice       Counter:       4   Parms: UU      M1      
           Vector  Mate for  SIuice       Diagnostic #    224  SIvice   exists 
 Computing Diagnostic #    224  SIvice       Counter:       4   Parms: VV      M1      
           Vector  Mate for  SIvice       Diagnostic #    223  SIuice   exists 
 Computing Diagnostic #    225  SItaux       Counter:       4   Parms: UU      U1      
           Vector  Mate for  SItaux       Diagnostic #    226  SItauy   exists 
 Computing Diagnostic #    226  SItauy       Counter:       4   Parms: VV      U1      
           Vector  Mate for  SItauy       Diagnostic #    225  SItaux   exists 
 Computing Diagnostic #    285  SIareaN      Counter:       4   Parms: SM      MX      
 Computing Diagnostic #    284  SIheffN      Counter:       4   Parms: SM      MX      
 Computing Diagnostic #    286  SIhsnowN     Counter:       4   Parms: SM      MX      
 Compute Stats, Diag. #    214  SIarea    vol(   0 ): 3.580E+14  Parms: SM      M1      
 Compute Stats, Diag. #    217  SIheff    vol(   0 ): 3.580E+14  Parms: SM      M1      
 Compute Stats, Diag. #    219  SIhsnow   vol(   0 ): 3.580E+14  Parms: SM      M1      
 Compute Stats, Diag. #     83  sIceLoad  vol(   0 ): 3.580E+14  Parms: SM      U1      
 Compute Stats, Diag. #    223  SIuice    vol(   0 ): 3.513E+14  Parms: UU      M1      
 Compute Stats, Diag. #    224  SIvice    vol(   0 ): 3.508E+14  Parms: VV      M1      
 Compute Stats, Diag. #    225  SItaux    vol(   0 ): 3.513E+14  Parms: UU      U1      
 Compute Stats, Diag. #    226  SItauy    vol(   0 ): 3.508E+14  Parms: VV      U1      
 cg2d: Sum(rhs),rhsMax =  -6.32252277464948E+01  3.04203361875882E-01
 Compute Stats, Diag. #    214  SIarea    vol(   0 ): 3.580E+14  Parms: SM      M1      
 Compute Stats, Diag. #    217  SIheff    vol(   0 ): 3.580E+14  Parms: SM      M1      
 Compute Stats, Diag. #    219  SIhsnow   vol(   0 ): 3.580E+14  Parms: SM      M1      
 Compute Stats, Diag. #     83  sIceLoad  vol(   0 ): 3.580E+14  Parms: SM      U1      
 Compute Stats, Diag. #    223  SIuice    vol(   0 ): 3.513E+14  Parms: UU      M1      
 Compute Stats, Diag. #    224  SIvice    vol(   0 ): 3.508E+14  Parms: VV      M1      
 Compute Stats, Diag. #    225  SItaux    vol(   0 ): 3.513E+14  Parms: UU      U1      
 Compute Stats, Diag. #    226  SItauy    vol(   0 ): 3.508E+14  Parms: VV      U1      
 cg2d: Sum(rhs),rhsMax =  -6.32117081715575E+01  3.04269200615092E-01
 Compute Stats, Diag. #    214  SIarea    vol(   0 ): 3.580E+14  Parms: SM      M1      
 Compute Stats, Diag. #    217  SIheff    vol(   0 ): 3.580E+14  Parms: SM      M1      
 Compute Stats, Diag. #    219  SIhsnow   vol(   0 ): 3.580E+14  Parms: SM      M1      
 Compute Stats, Diag. #     83  sIceLoad  vol(   0 ): 3.580E+14  Parms: SM      U1      
 Compute Stats, Diag. #    223  SIuice    vol(   0 ): 3.513E+14  Parms: UU      M1      
 Compute Stats, Diag. #    224  SIvice    vol(   0 ): 3.508E+14  Parms: VV      M1      
 Compute Stats, Diag. #    225  SItaux    vol(   0 ): 3.513E+14  Parms: UU      U1      
 Compute Stats, Diag. #    226  SItauy    vol(   0 ): 3.508E+14  Parms: VV      U1      
 cg2d: Sum(rhs),rhsMax =  -6.32022793185360E+01  3.04330214134738E-01
 Compute Stats, Diag. #    214  SIarea    vol(   0 ): 3.580E+14  Parms: SM      M1      
 Compute Stats, Diag. #    217  SIheff    vol(   0 ): 3.580E+14  Parms: SM      M1      
 Compute Stats, Diag. #    219  SIhsnow   vol(   0 ): 3.580E+14  Parms: SM      M1      
 Compute Stats, Diag. #     83  sIceLoad  vol(   0 ): 3.580E+14  Parms: SM      U1      
 Compute Stats, Diag. #    223  SIuice    vol(   0 ): 3.513E+14  Parms: UU      M1      
 Compute Stats, Diag. #    224  SIvice    vol(   0 ): 3.508E+14  Parms: VV      M1      
 Compute Stats, Diag. #    225  SItaux    vol(   0 ): 3.513E+14  Parms: UU      U1      
 Compute Stats, Diag. #    226  SItauy    vol(   0 ): 3.508E+14  Parms: VV      U1      
 cg2d: Sum(rhs),rhsMax =  -6.31944346735517E+01  3.04385766836175E-01
(PID.TID 0000.0001)      cg2d_init_res =   3.80269985885012E-02
(PID.TID 0000.0001)      cg2d_iters(min,last) =      -1      23
(PID.TID 0000.0001)      cg2d_last_res =   2.23942366347868E-05
(PID.TID 0000.0001) // =======================================================
(PID.TID 0000.0001) // Begin MONITOR dynamic field statistics
(PID.TID 0000.0001) // =======================================================
(PID.TID 0000.0001) %MON time_tsnumber                =                  1392
(PID.TID 0000.0001) %MON time_secondsf                =   1.2528000000000E+06
(PID.TID 0000.0001) %MON dynstat_eta_max              =   1.0183814516749E+00
(PID.TID 0000.0001) %MON dynstat_eta_min              =  -1.8929619380902E+00
(PID.TID 0000.0001) %MON dynstat_eta_mean             =   1.9990417983573E-03
(PID.TID 0000.0001) %MON dynstat_eta_sd               =   6.2955996956512E-01
(PID.TID 0000.0001) %MON dynstat_eta_del2             =   4.9619074287722E-05
(PID.TID 0000.0001) %MON dynstat_uvel_max             =   6.2735968747524E-01
(PID.TID 0000.0001) %MON dynstat_uvel_min             =  -1.0255346140233E+00
(PID.TID 0000.0001) %MON dynstat_uvel_mean            =   1.3478284232251E-03
(PID.TID 0000.0001) %MON dynstat_uvel_sd              =   1.8124531306001E-02
(PID.TID 0000.0001) %MON dynstat_uvel_del2            =   7.3178197672033E-06
(PID.TID 0000.0001) %MON dynstat_vvel_max             =   6.6601673891222E-01
(PID.TID 0000.0001) %MON dynstat_vvel_min             =  -1.1860180495746E+00
(PID.TID 0000.0001) %MON dynstat_vvel_mean            =   1.0493987877418E-03
(PID.TID 0000.0001) %MON dynstat_vvel_sd              =   1.9636702835061E-02
(PID.TID 0000.0001) %MON dynstat_vvel_del2            =   7.4533953627163E-06
(PID.TID 0000.0001) %MON dynstat_wvel_max             =   3.3447637508109E-04
(PID.TID 0000.0001) %MON dynstat_wvel_min             =  -7.7904366859642E-04
(PID.TID 0000.0001) %MON dynstat_wvel_mean            =  -3.0089599159628E-09
(PID.TID 0000.0001) %MON dynstat_wvel_sd              =   1.5418661664041E-05
(PID.TID 0000.0001) %MON dynstat_wvel_del2            =   1.6002680925019E-08
(PID.TID 0000.0001) %MON dynstat_theta_max            =   3.1147101763579E+01
(PID.TID 0000.0001) %MON dynstat_theta_min            =  -2.0393244720987E+00
(PID.TID 0000.0001) %MON dynstat_theta_mean           =   3.5899246566887E+00
(PID.TID 0000.0001) %MON dynstat_theta_sd             =   4.4368400836902E+00
(PID.TID 0000.0001) %MON dynstat_theta_del2           =   8.8872911347381E-05
(PID.TID 0000.0001) %MON dynstat_salt_max             =   4.0711556972422E+01
(PID.TID 0000.0001) %MON dynstat_salt_min             =   7.0622486145466E+00
(PID.TID 0000.0001) %MON dynstat_salt_mean            =   3.4725553738199E+01
(PID.TID 0000.0001) %MON dynstat_salt_sd              =   3.7720104702356E-01
(PID.TID 0000.0001) %MON dynstat_salt_del2            =   3.7685238091767E-05
(PID.TID 0000.0001) %MON dynstat_sst_max              =   3.1145041818914E+01
(PID.TID 0000.0001) %MON dynstat_sst_min              =  -1.8096869896791E+00
(PID.TID 0000.0001) %MON dynstat_sst_mean             =   1.8423449484161E+01
(PID.TID 0000.0001) %MON dynstat_sst_sd               =   1.0334266851591E+01
(PID.TID 0000.0001) %MON dynstat_sst_del2             =   7.9005047103896E-04
(PID.TID 0000.0001) %MON dynstat_sss_max              =   3.9098007256362E+01
(PID.TID 0000.0001) %MON dynstat_sss_min              =   7.0622486145466E+00
(PID.TID 0000.0001) %MON dynstat_sss_mean             =   3.4702383862801E+01
(PID.TID 0000.0001) %MON dynstat_sss_sd               =   1.1929006125814E+00
(PID.TID 0000.0001) %MON dynstat_sss_del2             =   1.1289932432649E-03
(PID.TID 0000.0001) %MON forcing_qnet_max             =   8.1264121032884E+02
(PID.TID 0000.0001) %MON forcing_qnet_min             =  -7.1711510004401E+02
(PID.TID 0000.0001) %MON forcing_qnet_mean            =   4.1488601890408E+01
(PID.TID 0000.0001) %MON forcing_qnet_sd              =   1.6483129237286E+02
(PID.TID 0000.0001) %MON forcing_qnet_del2            =   3.0954228697418E-01
(PID.TID 0000.0001) %MON forcing_qsw_max              =   0.0000000000000E+00
(PID.TID 0000.0001) %MON forcing_qsw_min              =  -1.0844323615624E+02
(PID.TID 0000.0001) %MON forcing_qsw_mean             =  -1.3206627383604E+01
(PID.TID 0000.0001) %MON forcing_qsw_sd               =   2.3795079203804E+01
(PID.TID 0000.0001) %MON forcing_qsw_del2             =   1.8190529853635E-02
(PID.TID 0000.0001) %MON forcing_empmr_max            =   7.0583767956123E-04
(PID.TID 0000.0001) %MON forcing_empmr_min            =  -3.5442687571049E-02
(PID.TID 0000.0001) %MON forcing_empmr_mean           =   2.8371951005564E-07
(PID.TID 0000.0001) %MON forcing_empmr_sd             =   2.0180080017307E-04
(PID.TID 0000.0001) %MON forcing_empmr_del2           =   2.5073811264481E-06
(PID.TID 0000.0001) %MON forcing_fu_max               =   1.0971427559853E+00
(PID.TID 0000.0001) %MON forcing_fu_min               =  -1.0426886677742E+00
(PID.TID 0000.0001) %MON forcing_fu_mean              =   6.2992048045235E-03
(PID.TID 0000.0001) %MON forcing_fu_sd                =   1.3196018650699E-01
(PID.TID 0000.0001) %MON forcing_fu_del2              =   1.7203060182306E-04
(PID.TID 0000.0001) %MON forcing_fv_max               =   1.1417912840843E+00
(PID.TID 0000.0001) %MON forcing_fv_min               =  -9.4022678112307E-01
(PID.TID 0000.0001) %MON forcing_fv_mean              =  -6.2615427603077E-03
(PID.TID 0000.0001) %MON forcing_fv_sd                =   1.2143917833252E-01
(PID.TID 0000.0001) %MON forcing_fv_del2              =   1.8038473346957E-04
(PID.TID 0000.0001) %MON trAdv_CFL_u_max              =   1.4279414441400E-02
(PID.TID 0000.0001) %MON trAdv_CFL_v_max              =   1.3528729769604E-02
(PID.TID 0000.0001) %MON trAdv_CFL_w_max              =   2.4894143178167E-02
(PID.TID 0000.0001) %MON advcfl_uvel_max              =   1.2554025505943E-02
(PID.TID 0000.0001) %MON advcfl_vvel_max              =   1.2297053115184E-02
(PID.TID 0000.0001) %MON advcfl_wvel_max              =   2.5198134717145E-02
(PID.TID 0000.0001) %MON advcfl_W_hf_max              =   2.5326911524679E-02
(PID.TID 0000.0001) %MON pe_b_mean                    =   5.2135871246701E-04
(PID.TID 0000.0001) %MON ke_max                       =   7.8005223808919E-01
(PID.TID 0000.0001) %MON ke_mean                      =   3.4574262321939E-04
(PID.TID 0000.0001) %MON ke_vol                       =   1.3349985927128E+18
(PID.TID 0000.0001) %MON vort_r_min                   =  -1.3764193963248E-05
(PID.TID 0000.0001) %MON vort_r_max                   =   1.6609423114413E-05
(PID.TID 0000.0001) %MON vort_a_mean                  =  -1.9727864647440E-05
(PID.TID 0000.0001) %MON vort_a_sd                    =   7.4542987875331E-05
(PID.TID 0000.0001) %MON vort_p_mean                  =  -2.1760522526264E-05
(PID.TID 0000.0001) %MON vort_p_sd                    =   9.7246248360078E-05
(PID.TID 0000.0001) %MON surfExpan_theta_mean         =   7.0822447396243E-08
(PID.TID 0000.0001) %MON surfExpan_salt_mean          =   3.3774603767038E-08
(PID.TID 0000.0001) // =======================================================
(PID.TID 0000.0001) // End MONITOR dynamic field statistics
(PID.TID 0000.0001) // =======================================================
(PID.TID 0000.0001) // =======================================================
(PID.TID 0000.0001) // Begin MONITOR SEAICE statistics
(PID.TID 0000.0001) // =======================================================
(PID.TID 0000.0001) %MON seaice_tsnumber              =                  1392
(PID.TID 0000.0001) %MON seaice_time_sec              =   1.2528000000000E+06
(PID.TID 0000.0001) %MON seaice_uice_max              =   4.0000000000000E-01
(PID.TID 0000.0001) %MON seaice_uice_min              =  -4.0000000000000E-01
(PID.TID 0000.0001) %MON seaice_uice_mean             =  -8.3054598624025E-03
(PID.TID 0000.0001) %MON seaice_uice_sd               =   1.9802383574176E-01
(PID.TID 0000.0001) %MON seaice_uice_del2             =   2.2931571122150E-04
(PID.TID 0000.0001) %MON seaice_vice_max              =   4.0000000000000E-01
(PID.TID 0000.0001) %MON seaice_vice_min              =  -4.0000000000000E-01
(PID.TID 0000.0001) %MON seaice_vice_mean             =  -2.1960776359499E-02
(PID.TID 0000.0001) %MON seaice_vice_sd               =   2.1302038025672E-01
(PID.TID 0000.0001) %MON seaice_vice_del2             =   2.3932563818061E-04
(PID.TID 0000.0001) %MON seaice_area_max              =   9.9999993853271E-01
(PID.TID 0000.0001) %MON seaice_area_min              =   0.0000000000000E+00
(PID.TID 0000.0001) %MON seaice_area_mean             =   6.3801444297809E-02
(PID.TID 0000.0001) %MON seaice_area_sd               =   2.2626226157957E-01
(PID.TID 0000.0001) %MON seaice_area_del2             =   3.6091228939473E-04
(PID.TID 0000.0001) %MON seaice_heff_max              =   2.4851387275674E+01
(PID.TID 0000.0001) %MON seaice_heff_min              =   0.0000000000000E+00
(PID.TID 0000.0001) %MON seaice_heff_mean             =   2.1079752253820E-01
(PID.TID 0000.0001) %MON seaice_heff_sd               =   1.0651092329214E+00
(PID.TID 0000.0001) %MON seaice_heff_del2             =   3.7942513244618E-03
(PID.TID 0000.0001) %MON seaice_hsnow_max             =   8.2083382128621E+00
(PID.TID 0000.0001) %MON seaice_hsnow_min             =   0.0000000000000E+00
(PID.TID 0000.0001) %MON seaice_hsnow_mean            =   2.3844084720427E-02
(PID.TID 0000.0001) %MON seaice_hsnow_sd              =   1.5564115640646E-01
(PID.TID 0000.0001) %MON seaice_hsnow_del2            =   1.2309767103156E-03
(PID.TID 0000.0001) // =======================================================
(PID.TID 0000.0001) // End MONITOR SEAICE statistics
(PID.TID 0000.0001) // =======================================================
 Computing Diagnostic #     86  oceQnet      Counter:       4   Parms: SM      U1      
 Computing Diagnostic #     87  oceQsw       Counter:       4   Parms: SM      U1      
 Computing Diagnostic #     84  oceFWflx     Counter:       4   Parms: SM      U1      
 Computing Diagnostic #     85  oceSflux     Counter:       4   Parms: SM      U1      
 Computing Diagnostic #     80  oceTAUX      Counter:       4   Parms: UU      U1      
           Vector  Mate for  oceTAUX      Diagnostic #     81  oceTAUY  exists 
 Computing Diagnostic #     81  oceTAUY      Counter:       4   Parms: VV      U1      
           Vector  Mate for  oceTAUY      Diagnostic #     80  oceTAUX  exists 
 Computing Diagnostic #     26  THETA        Counter:       4   Parms: SMR     MR      
 Computing Diagnostic #     27  SALT         Counter:       4   Parms: SMR     MR      
 Computing Diagnostic #     30  UVEL         Counter:       4   Parms: UUR     MR      
           Vector  Mate for  UVEL         Diagnostic #     31  VVEL     exists 
 Computing Diagnostic #     31  VVEL         Counter:       4   Parms: VVR     MR      
           Vector  Mate for  VVEL         Diagnostic #     30  UVEL     exists 
 Computing Diagnostic #    214  SIarea       Counter:       4   Parms: SM      M1      
 Computing Diagnostic #    217  SIheff       Counter:       4   Parms: SM      M1      
 Computing Diagnostic #    219  SIhsnow      Counter:       4   Parms: SM      M1      
 Computing Diagnostic #     83  sIceLoad     Counter:       4   Parms: SM      U1      
 Computing Diagnostic #    223  SIuice       Counter:       4   Parms: UU      M1      
           Vector  Mate for  SIuice       Diagnostic #    224  SIvice   exists 
 Computing Diagnostic #    224  SIvice       Counter:       4   Parms: VV      M1      
           Vector  Mate for  SIvice       Diagnostic #    223  SIuice   exists 
 Computing Diagnostic #    225  SItaux       Counter:       4   Parms: UU      U1      
           Vector  Mate for  SItaux       Diagnostic #    226  SItauy   exists 
 Computing Diagnostic #    226  SItauy       Counter:       4   Parms: VV      U1      
           Vector  Mate for  SItauy       Diagnostic #    225  SItaux   exists 
 Computing Diagnostic #    285  SIareaN      Counter:       4   Parms: SM      MX      
 Computing Diagnostic #    284  SIheffN      Counter:       4   Parms: SM      MX      
 Computing Diagnostic #    286  SIhsnowN     Counter:       4   Parms: SM      MX      
 Compute Stats, Diag. #    214  SIarea    vol(   0 ): 3.580E+14  Parms: SM      M1      
 Compute Stats, Diag. #    217  SIheff    vol(   0 ): 3.580E+14  Parms: SM      M1      
 Compute Stats, Diag. #    219  SIhsnow   vol(   0 ): 3.580E+14  Parms: SM      M1      
 Compute Stats, Diag. #     83  sIceLoad  vol(   0 ): 3.580E+14  Parms: SM      U1      
 Compute Stats, Diag. #    223  SIuice    vol(   0 ): 3.513E+14  Parms: UU      M1      
 Compute Stats, Diag. #    224  SIvice    vol(   0 ): 3.508E+14  Parms: VV      M1      
 Compute Stats, Diag. #    225  SItaux    vol(   0 ): 3.513E+14  Parms: UU      U1      
 Compute Stats, Diag. #    226  SItauy    vol(   0 ): 3.508E+14  Parms: VV      U1      
 cg2d: Sum(rhs),rhsMax =  -6.31876747205393E+01  3.04436238293909E-01
 Compute Stats, Diag. #    214  SIarea    vol(   0 ): 3.580E+14  Parms: SM      M1      
 Compute Stats, Diag. #    217  SIheff    vol(   0 ): 3.580E+14  Parms: SM      M1      
 Compute Stats, Diag. #    219  SIhsnow   vol(   0 ): 3.580E+14  Parms: SM      M1      
 Compute Stats, Diag. #     83  sIceLoad  vol(   0 ): 3.580E+14  Parms: SM      U1      
 Compute Stats, Diag. #    223  SIuice    vol(   0 ): 3.513E+14  Parms: UU      M1      
 Compute Stats, Diag. #    224  SIvice    vol(   0 ): 3.508E+14  Parms: VV      M1      
 Compute Stats, Diag. #    225  SItaux    vol(   0 ): 3.513E+14  Parms: UU      U1      
 Compute Stats, Diag. #    226  SItauy    vol(   0 ): 3.508E+14  Parms: VV      U1      
 cg2d: Sum(rhs),rhsMax =  -6.31831323257402E+01  3.04481482819682E-01
 Compute Stats, Diag. #    214  SIarea    vol(   0 ): 3.580E+14  Parms: SM      M1      
 Compute Stats, Diag. #    217  SIheff    vol(   0 ): 3.580E+14  Parms: SM      M1      
 Compute Stats, Diag. #    219  SIhsnow   vol(   0 ): 3.580E+14  Parms: SM      M1      
 Compute Stats, Diag. #     83  sIceLoad  vol(   0 ): 3.580E+14  Parms: SM      U1      
 Compute Stats, Diag. #    223  SIuice    vol(   0 ): 3.513E+14  Parms: UU      M1      
 Compute Stats, Diag. #    224  SIvice    vol(   0 ): 3.508E+14  Parms: VV      M1      
 Compute Stats, Diag. #    225  SItaux    vol(   0 ): 3.513E+14  Parms: UU      U1      
 Compute Stats, Diag. #    226  SItauy    vol(   0 ): 3.508E+14  Parms: VV      U1      
 cg2d: Sum(rhs),rhsMax =  -6.31764194296770E+01  3.04521457545063E-01
 Compute Stats, Diag. #    214  SIarea    vol(   0 ): 3.580E+14  Parms: SM      M1      
 Compute Stats, Diag. #    217  SIheff    vol(   0 ): 3.580E+14  Parms: SM      M1      
 Compute Stats, Diag. #    219  SIhsnow   vol(   0 ): 3.580E+14  Parms: SM      M1      
 Compute Stats, Diag. #     83  sIceLoad  vol(   0 ): 3.580E+14  Parms: SM      U1      
 Compute Stats, Diag. #    223  SIuice    vol(   0 ): 3.513E+14  Parms: UU      M1      
 Compute Stats, Diag. #    224  SIvice    vol(   0 ): 3.508E+14  Parms: VV      M1      
 Compute Stats, Diag. #    225  SItaux    vol(   0 ): 3.513E+14  Parms: UU      U1      
 Compute Stats, Diag. #    226  SItauy    vol(   0 ): 3.508E+14  Parms: VV      U1      
 cg2d: Sum(rhs),rhsMax =  -6.31775656126281E+01  3.04555814376284E-01
 Computing Diagnostic #     86  oceQnet      Counter:       4   Parms: SM      U1      
 Computing Diagnostic #     87  oceQsw       Counter:       4   Parms: SM      U1      
 Computing Diagnostic #     84  oceFWflx     Counter:       4   Parms: SM      U1      
 Computing Diagnostic #     85  oceSflux     Counter:       4   Parms: SM      U1      
 Computing Diagnostic #     80  oceTAUX      Counter:       4   Parms: UU      U1      
           Vector  Mate for  oceTAUX      Diagnostic #     81  oceTAUY  exists 
 Computing Diagnostic #     81  oceTAUY      Counter:       4   Parms: VV      U1      
           Vector  Mate for  oceTAUY      Diagnostic #     80  oceTAUX  exists 
 Computing Diagnostic #     26  THETA        Counter:       4   Parms: SMR     MR      
 Computing Diagnostic #     27  SALT         Counter:       4   Parms: SMR     MR      
 Computing Diagnostic #     30  UVEL         Counter:       4   Parms: UUR     MR      
           Vector  Mate for  UVEL         Diagnostic #     31  VVEL     exists 
 Computing Diagnostic #     31  VVEL         Counter:       4   Parms: VVR     MR      
           Vector  Mate for  VVEL         Diagnostic #     30  UVEL     exists 
 Computing Diagnostic #    214  SIarea       Counter:       4   Parms: SM      M1      
 Computing Diagnostic #    217  SIheff       Counter:       4   Parms: SM      M1      
 Computing Diagnostic #    219  SIhsnow      Counter:       4   Parms: SM      M1      
 Computing Diagnostic #     83  sIceLoad     Counter:       4   Parms: SM      U1      
 Computing Diagnostic #    223  SIuice       Counter:       4   Parms: UU      M1      
           Vector  Mate for  SIuice       Diagnostic #    224  SIvice   exists 
 Computing Diagnostic #    224  SIvice       Counter:       4   Parms: VV      M1      
           Vector  Mate for  SIvice       Diagnostic #    223  SIuice   exists 
 Computing Diagnostic #    225  SItaux       Counter:       4   Parms: UU      U1      
           Vector  Mate for  SItaux       Diagnostic #    226  SItauy   exists 
 Computing Diagnostic #    226  SItauy       Counter:       4   Parms: VV      U1      
           Vector  Mate for  SItauy       Diagnostic #    225  SItaux   exists 
 Computing Diagnostic #    285  SIareaN      Counter:       4   Parms: SM      MX      
 Computing Diagnostic #    284  SIheffN      Counter:       4   Parms: SM      MX      
 Computing Diagnostic #    286  SIhsnowN     Counter:       4   Parms: SM      MX      
 Compute Stats, Diag. #    214  SIarea    vol(   0 ): 3.580E+14  Parms: SM      M1      
 Compute Stats, Diag. #    217  SIheff    vol(   0 ): 3.580E+14  Parms: SM      M1      
 Compute Stats, Diag. #    219  SIhsnow   vol(   0 ): 3.580E+14  Parms: SM      M1      
 Compute Stats, Diag. #     83  sIceLoad  vol(   0 ): 3.580E+14  Parms: SM      U1      
 Compute Stats, Diag. #    223  SIuice    vol(   0 ): 3.513E+14  Parms: UU      M1      
 Compute Stats, Diag. #    224  SIvice    vol(   0 ): 3.508E+14  Parms: VV      M1      
 Compute Stats, Diag. #    225  SItaux    vol(   0 ): 3.513E+14  Parms: UU      U1      
 Compute Stats, Diag. #    226  SItauy    vol(   0 ): 3.508E+14  Parms: VV      U1      
 cg2d: Sum(rhs),rhsMax =  -6.31761676700877E+01  3.04584528904116E-01
 Compute Stats, Diag. #    214  SIarea    vol(   0 ): 3.580E+14  Parms: SM      M1      
 Compute Stats, Diag. #    217  SIheff    vol(   0 ): 3.580E+14  Parms: SM      M1      
 Compute Stats, Diag. #    219  SIhsnow   vol(   0 ): 3.580E+14  Parms: SM      M1      
 Compute Stats, Diag. #     83  sIceLoad  vol(   0 ): 3.580E+14  Parms: SM      U1      
 Compute Stats, Diag. #    223  SIuice    vol(   0 ): 3.513E+14  Parms: UU      M1      
 Compute Stats, Diag. #    224  SIvice    vol(   0 ): 3.508E+14  Parms: VV      M1      
 Compute Stats, Diag. #    225  SItaux    vol(   0 ): 3.513E+14  Parms: UU      U1      
 Compute Stats, Diag. #    226  SItauy    vol(   0 ): 3.508E+14  Parms: VV      U1      
 cg2d: Sum(rhs),rhsMax =  -6.31713374213311E+01  3.04607604944803E-01
 Compute Stats, Diag. #    214  SIarea    vol(   0 ): 3.580E+14  Parms: SM      M1      
 Compute Stats, Diag. #    217  SIheff    vol(   0 ): 3.580E+14  Parms: SM      M1      
 Compute Stats, Diag. #    219  SIhsnow   vol(   0 ): 3.580E+14  Parms: SM      M1      
 Compute Stats, Diag. #     83  sIceLoad  vol(   0 ): 3.580E+14  Parms: SM      U1      
 Compute Stats, Diag. #    223  SIuice    vol(   0 ): 3.513E+14  Parms: UU      M1      
 Compute Stats, Diag. #    224  SIvice    vol(   0 ): 3.508E+14  Parms: VV      M1      
 Compute Stats, Diag. #    225  SItaux    vol(   0 ): 3.513E+14  Parms: UU      U1      
 Compute Stats, Diag. #    226  SItauy    vol(   0 ): 3.508E+14  Parms: VV      U1      
 cg2d: Sum(rhs),rhsMax =  -6.31624045473945E+01  3.04624884273058E-01
 Compute Stats, Diag. #    214  SIarea    vol(   0 ): 3.580E+14  Parms: SM      M1      
 Compute Stats, Diag. #    217  SIheff    vol(   0 ): 3.580E+14  Parms: SM      M1      
 Compute Stats, Diag. #    219  SIhsnow   vol(   0 ): 3.580E+14  Parms: SM      M1      
 Compute Stats, Diag. #     83  sIceLoad  vol(   0 ): 3.580E+14  Parms: SM      U1      
 Compute Stats, Diag. #    223  SIuice    vol(   0 ): 3.513E+14  Parms: UU      M1      
 Compute Stats, Diag. #    224  SIvice    vol(   0 ): 3.508E+14  Parms: VV      M1      
 Compute Stats, Diag. #    225  SItaux    vol(   0 ): 3.513E+14  Parms: UU      U1      
 Compute Stats, Diag. #    226  SItauy    vol(   0 ): 3.508E+14  Parms: VV      U1      
 cg2d: Sum(rhs),rhsMax =  -6.31595099797680E+01  3.04637243518366E-01
(PID.TID 0000.0001)      cg2d_init_res =   3.86495701551342E-02
(PID.TID 0000.0001)      cg2d_iters(min,last) =      -1      23
(PID.TID 0000.0001)      cg2d_last_res =   2.34501197554927E-05
(PID.TID 0000.0001) // =======================================================
(PID.TID 0000.0001) // Begin MONITOR dynamic field statistics
(PID.TID 0000.0001) // =======================================================
(PID.TID 0000.0001) %MON time_tsnumber                =                  1400
(PID.TID 0000.0001) %MON time_secondsf                =   1.2600000000000E+06
(PID.TID 0000.0001) %MON dynstat_eta_max              =   1.0187800275868E+00
(PID.TID 0000.0001) %MON dynstat_eta_min              =  -1.8950028600951E+00
(PID.TID 0000.0001) %MON dynstat_eta_mean             =   1.9979370187507E-03
(PID.TID 0000.0001) %MON dynstat_eta_sd               =   6.2960488687379E-01
(PID.TID 0000.0001) %MON dynstat_eta_del2             =   4.9450267083483E-05
(PID.TID 0000.0001) %MON dynstat_uvel_max             =   6.2769862511668E-01
(PID.TID 0000.0001) %MON dynstat_uvel_min             =  -1.0272131368205E+00
(PID.TID 0000.0001) %MON dynstat_uvel_mean            =   1.3428689681781E-03
(PID.TID 0000.0001) %MON dynstat_uvel_sd              =   1.8108108407090E-02
(PID.TID 0000.0001) %MON dynstat_uvel_del2            =   7.2804225233157E-06
(PID.TID 0000.0001) %MON dynstat_vvel_max             =   6.7158914030399E-01
(PID.TID 0000.0001) %MON dynstat_vvel_min             =  -1.1883072843448E+00
(PID.TID 0000.0001) %MON dynstat_vvel_mean            =   1.0368898527172E-03
(PID.TID 0000.0001) %MON dynstat_vvel_sd              =   1.9644647537490E-02
(PID.TID 0000.0001) %MON dynstat_vvel_del2            =   7.4262390146697E-06
(PID.TID 0000.0001) %MON dynstat_wvel_max             =   3.5292698933569E-04
(PID.TID 0000.0001) %MON dynstat_wvel_min             =  -7.7838792040532E-04
(PID.TID 0000.0001) %MON dynstat_wvel_mean            =  -2.0583761580832E-09
(PID.TID 0000.0001) %MON dynstat_wvel_sd              =   1.5404023074133E-05
(PID.TID 0000.0001) %MON dynstat_wvel_del2            =   1.5808098479276E-08
(PID.TID 0000.0001) %MON dynstat_theta_max            =   3.1127076110672E+01
(PID.TID 0000.0001) %MON dynstat_theta_min            =  -2.0393127044928E+00
(PID.TID 0000.0001) %MON dynstat_theta_mean           =   3.5899076020596E+00
(PID.TID 0000.0001) %MON dynstat_theta_sd             =   4.4367878160589E+00
(PID.TID 0000.0001) %MON dynstat_theta_del2           =   8.8844146748893E-05
(PID.TID 0000.0001) %MON dynstat_salt_max             =   4.0711557121030E+01
(PID.TID 0000.0001) %MON dynstat_salt_min             =   7.2447484319493E+00
(PID.TID 0000.0001) %MON dynstat_salt_mean            =   3.4725553752748E+01
(PID.TID 0000.0001) %MON dynstat_salt_sd              =   3.7720174513197E-01
(PID.TID 0000.0001) %MON dynstat_salt_del2            =   3.7628496198794E-05
(PID.TID 0000.0001) %MON dynstat_sst_max              =   3.1127060658702E+01
(PID.TID 0000.0001) %MON dynstat_sst_min              =  -1.8096807178774E+00
(PID.TID 0000.0001) %MON dynstat_sst_mean             =   1.8419115694588E+01
(PID.TID 0000.0001) %MON dynstat_sst_sd               =   1.0333795467293E+01
(PID.TID 0000.0001) %MON dynstat_sst_del2             =   7.8871728422782E-04
(PID.TID 0000.0001) %MON dynstat_sss_max              =   3.9097952111271E+01
(PID.TID 0000.0001) %MON dynstat_sss_min              =   7.2447484319493E+00
(PID.TID 0000.0001) %MON dynstat_sss_mean             =   3.4702395192221E+01
(PID.TID 0000.0001) %MON dynstat_sss_sd               =   1.1929661925422E+00
(PID.TID 0000.0001) %MON dynstat_sss_del2             =   1.1240451364039E-03
(PID.TID 0000.0001) %MON forcing_qnet_max             =   6.7556998407401E+02
(PID.TID 0000.0001) %MON forcing_qnet_min             =  -7.6546252441406E+02
(PID.TID 0000.0001) %MON forcing_qnet_mean            =   3.1278916341087E+01
(PID.TID 0000.0001) %MON forcing_qnet_sd              =   1.7785241428850E+02
(PID.TID 0000.0001) %MON forcing_qnet_del2            =   3.1269192672240E-01
(PID.TID 0000.0001) %MON forcing_qsw_max              =   0.0000000000000E+00
(PID.TID 0000.0001) %MON forcing_qsw_min              =  -1.0036395091820E+02
(PID.TID 0000.0001) %MON forcing_qsw_mean             =  -1.4175692391481E+01
(PID.TID 0000.0001) %MON forcing_qsw_sd               =   2.3936589777716E+01
(PID.TID 0000.0001) %MON forcing_qsw_del2             =   1.9508305785741E-02
(PID.TID 0000.0001) %MON forcing_empmr_max            =   1.4480252284557E-03
(PID.TID 0000.0001) %MON forcing_empmr_min            =  -2.6632392778993E-02
(PID.TID 0000.0001) %MON forcing_empmr_mean           =   1.0468865210430E-07
(PID.TID 0000.0001) %MON forcing_empmr_sd             =   1.7754909848097E-04
(PID.TID 0000.0001) %MON forcing_empmr_del2           =   2.0411695821510E-06
(PID.TID 0000.0001) %MON forcing_fu_max               =   1.0939475297928E+00
(PID.TID 0000.0001) %MON forcing_fu_min               =  -9.7615772485733E-01
(PID.TID 0000.0001) %MON forcing_fu_mean              =   6.1299022002722E-03
(PID.TID 0000.0001) %MON forcing_fu_sd                =   1.3181455616035E-01
(PID.TID 0000.0001) %MON forcing_fu_del2              =   1.6475862260932E-04
(PID.TID 0000.0001) %MON forcing_fv_max               =   1.0920612812042E+00
(PID.TID 0000.0001) %MON forcing_fv_min               =  -8.8367000222205E-01
(PID.TID 0000.0001) %MON forcing_fv_mean              =  -5.5212558327002E-03
(PID.TID 0000.0001) %MON forcing_fv_sd                =   1.1998933274055E-01
(PID.TID 0000.0001) %MON forcing_fv_del2              =   1.7417617560151E-04
(PID.TID 0000.0001) %MON trAdv_CFL_u_max              =   1.4244180545689E-02
(PID.TID 0000.0001) %MON trAdv_CFL_v_max              =   1.3666578706870E-02
(PID.TID 0000.0001) %MON trAdv_CFL_w_max              =   2.0114035026697E-02
(PID.TID 0000.0001) %MON advcfl_uvel_max              =   1.2519376843002E-02
(PID.TID 0000.0001) %MON advcfl_vvel_max              =   1.2285008778459E-02
(PID.TID 0000.0001) %MON advcfl_wvel_max              =   2.3842440172432E-02
(PID.TID 0000.0001) %MON advcfl_W_hf_max              =   2.3913431360512E-02
(PID.TID 0000.0001) %MON pe_b_mean                    =   5.2143310365371E-04
(PID.TID 0000.0001) %MON ke_max                       =   7.8171230721827E-01
(PID.TID 0000.0001) %MON ke_mean                      =   3.4558723111726E-04
(PID.TID 0000.0001) %MON ke_vol                       =   1.3349985922612E+18
(PID.TID 0000.0001) %MON vort_r_min                   =  -1.3507251438973E-05
(PID.TID 0000.0001) %MON vort_r_max                   =   1.6422710866713E-05
(PID.TID 0000.0001) %MON vort_a_mean                  =  -1.9727864647440E-05
(PID.TID 0000.0001) %MON vort_a_sd                    =   7.4542984525766E-05
(PID.TID 0000.0001) %MON vort_p_mean                  =  -2.1760522503280E-05
(PID.TID 0000.0001) %MON vort_p_sd                    =   9.7246338649934E-05
(PID.TID 0000.0001) %MON surfExpan_theta_mean         =   3.9925117954727E-08
(PID.TID 0000.0001) %MON surfExpan_salt_mean          =   2.7527477939295E-08
(PID.TID 0000.0001) // =======================================================
(PID.TID 0000.0001) // End MONITOR dynamic field statistics
(PID.TID 0000.0001) // =======================================================
(PID.TID 0000.0001) // =======================================================
(PID.TID 0000.0001) // Begin MONITOR SEAICE statistics
(PID.TID 0000.0001) // =======================================================
(PID.TID 0000.0001) %MON seaice_tsnumber              =                  1400
(PID.TID 0000.0001) %MON seaice_time_sec              =   1.2600000000000E+06
(PID.TID 0000.0001) %MON seaice_uice_max              =   4.0000000000000E-01
(PID.TID 0000.0001) %MON seaice_uice_min              =  -4.0000000000000E-01
(PID.TID 0000.0001) %MON seaice_uice_mean             =  -8.3054598624025E-03
(PID.TID 0000.0001) %MON seaice_uice_sd               =   1.9802383574176E-01
(PID.TID 0000.0001) %MON seaice_uice_del2             =   2.2931571122150E-04
(PID.TID 0000.0001) %MON seaice_vice_max              =   4.0000000000000E-01
(PID.TID 0000.0001) %MON seaice_vice_min              =  -4.0000000000000E-01
(PID.TID 0000.0001) %MON seaice_vice_mean             =  -2.1960776359499E-02
(PID.TID 0000.0001) %MON seaice_vice_sd               =   2.1302038025672E-01
(PID.TID 0000.0001) %MON seaice_vice_del2             =   2.3932563818061E-04
(PID.TID 0000.0001) %MON seaice_area_max              =   9.9999993853271E-01
(PID.TID 0000.0001) %MON seaice_area_min              =   0.0000000000000E+00
(PID.TID 0000.0001) %MON seaice_area_mean             =   6.3791411250366E-02
(PID.TID 0000.0001) %MON seaice_area_sd               =   2.2625100360054E-01
(PID.TID 0000.0001) %MON seaice_area_del2             =   3.6065432934531E-04
(PID.TID 0000.0001) %MON seaice_heff_max              =   2.4850413251377E+01
(PID.TID 0000.0001) %MON seaice_heff_min              =   0.0000000000000E+00
(PID.TID 0000.0001) %MON seaice_heff_mean             =   2.1078632521600E-01
(PID.TID 0000.0001) %MON seaice_heff_sd               =   1.0651037842174E+00
(PID.TID 0000.0001) %MON seaice_heff_del2             =   3.7936989550731E-03
(PID.TID 0000.0001) %MON seaice_hsnow_max             =   8.2080371384072E+00
(PID.TID 0000.0001) %MON seaice_hsnow_min             =   0.0000000000000E+00
(PID.TID 0000.0001) %MON seaice_hsnow_mean            =   2.3845780372149E-02
(PID.TID 0000.0001) %MON seaice_hsnow_sd              =   1.5563553037558E-01
(PID.TID 0000.0001) %MON seaice_hsnow_del2            =   1.2308936264310E-03
(PID.TID 0000.0001) // =======================================================
(PID.TID 0000.0001) // End MONITOR SEAICE statistics
(PID.TID 0000.0001) // =======================================================
 Computing Diagnostic #     86  oceQnet      Counter:       4   Parms: SM      U1      
 Computing Diagnostic #     87  oceQsw       Counter:       4   Parms: SM      U1      
 Computing Diagnostic #     84  oceFWflx     Counter:       4   Parms: SM      U1      
 Computing Diagnostic #     85  oceSflux     Counter:       4   Parms: SM      U1      
 Computing Diagnostic #     80  oceTAUX      Counter:       4   Parms: UU      U1      
           Vector  Mate for  oceTAUX      Diagnostic #     81  oceTAUY  exists 
 Computing Diagnostic #     81  oceTAUY      Counter:       4   Parms: VV      U1      
           Vector  Mate for  oceTAUY      Diagnostic #     80  oceTAUX  exists 
 Computing Diagnostic #     26  THETA        Counter:       4   Parms: SMR     MR      
 Computing Diagnostic #     27  SALT         Counter:       4   Parms: SMR     MR      
 Computing Diagnostic #     30  UVEL         Counter:       4   Parms: UUR     MR      
           Vector  Mate for  UVEL         Diagnostic #     31  VVEL     exists 
 Computing Diagnostic #     31  VVEL         Counter:       4   Parms: VVR     MR      
           Vector  Mate for  VVEL         Diagnostic #     30  UVEL     exists 
 Computing Diagnostic #    214  SIarea       Counter:       4   Parms: SM      M1      
 Computing Diagnostic #    217  SIheff       Counter:       4   Parms: SM      M1      
 Computing Diagnostic #    219  SIhsnow      Counter:       4   Parms: SM      M1      
 Computing Diagnostic #     83  sIceLoad     Counter:       4   Parms: SM      U1      
 Computing Diagnostic #    223  SIuice       Counter:       4   Parms: UU      M1      
           Vector  Mate for  SIuice       Diagnostic #    224  SIvice   exists 
 Computing Diagnostic #    224  SIvice       Counter:       4   Parms: VV      M1      
           Vector  Mate for  SIvice       Diagnostic #    223  SIuice   exists 
 Computing Diagnostic #    225  SItaux       Counter:       4   Parms: UU      U1      
           Vector  Mate for  SItaux       Diagnostic #    226  SItauy   exists 
 Computing Diagnostic #    226  SItauy       Counter:       4   Parms: VV      U1      
           Vector  Mate for  SItauy       Diagnostic #    225  SItaux   exists 
 Computing Diagnostic #    285  SIareaN      Counter:       4   Parms: SM      MX      
 Computing Diagnostic #    284  SIheffN      Counter:       4   Parms: SM      MX      
 Computing Diagnostic #    286  SIhsnowN     Counter:       4   Parms: SM      MX      
 Compute Stats, Diag. #    214  SIarea    vol(   0 ): 3.580E+14  Parms: SM      M1      
 Compute Stats, Diag. #    217  SIheff    vol(   0 ): 3.580E+14  Parms: SM      M1      
 Compute Stats, Diag. #    219  SIhsnow   vol(   0 ): 3.580E+14  Parms: SM      M1      
 Compute Stats, Diag. #     83  sIceLoad  vol(   0 ): 3.580E+14  Parms: SM      U1      
 Compute Stats, Diag. #    223  SIuice    vol(   0 ): 3.513E+14  Parms: UU      M1      
 Compute Stats, Diag. #    224  SIvice    vol(   0 ): 3.508E+14  Parms: VV      M1      
 Compute Stats, Diag. #    225  SItaux    vol(   0 ): 3.513E+14  Parms: UU      U1      
 Compute Stats, Diag. #    226  SItauy    vol(   0 ): 3.508E+14  Parms: VV      U1      
 cg2d: Sum(rhs),rhsMax =  -6.31617200408317E+01  3.04644148830037E-01
 Compute Stats, Diag. #    214  SIarea    vol(   0 ): 3.580E+14  Parms: SM      M1      
 Compute Stats, Diag. #    217  SIheff    vol(   0 ): 3.580E+14  Parms: SM      M1      
 Compute Stats, Diag. #    219  SIhsnow   vol(   0 ): 3.580E+14  Parms: SM      M1      
 Compute Stats, Diag. #     83  sIceLoad  vol(   0 ): 3.580E+14  Parms: SM      U1      
 Compute Stats, Diag. #    223  SIuice    vol(   0 ): 3.513E+14  Parms: UU      M1      
 Compute Stats, Diag. #    224  SIvice    vol(   0 ): 3.508E+14  Parms: VV      M1      
 Compute Stats, Diag. #    225  SItaux    vol(   0 ): 3.513E+14  Parms: UU      U1      
 Compute Stats, Diag. #    226  SItauy    vol(   0 ): 3.508E+14  Parms: VV      U1      
 cg2d: Sum(rhs),rhsMax =  -6.31748816988044E+01  3.04646169353255E-01
 Compute Stats, Diag. #    214  SIarea    vol(   0 ): 3.580E+14  Parms: SM      M1      
 Compute Stats, Diag. #    217  SIheff    vol(   0 ): 3.580E+14  Parms: SM      M1      
 Compute Stats, Diag. #    219  SIhsnow   vol(   0 ): 3.580E+14  Parms: SM      M1      
 Compute Stats, Diag. #     83  sIceLoad  vol(   0 ): 3.580E+14  Parms: SM      U1      
 Compute Stats, Diag. #    223  SIuice    vol(   0 ): 3.513E+14  Parms: UU      M1      
 Compute Stats, Diag. #    224  SIvice    vol(   0 ): 3.508E+14  Parms: VV      M1      
 Compute Stats, Diag. #    225  SItaux    vol(   0 ): 3.513E+14  Parms: UU      U1      
 Compute Stats, Diag. #    226  SItauy    vol(   0 ): 3.508E+14  Parms: VV      U1      
 cg2d: Sum(rhs),rhsMax =  -6.31921881706172E+01  3.04643541643930E-01
 Compute Stats, Diag. #    214  SIarea    vol(   0 ): 3.580E+14  Parms: SM      M1      
 Compute Stats, Diag. #    217  SIheff    vol(   0 ): 3.580E+14  Parms: SM      M1      
 Compute Stats, Diag. #    219  SIhsnow   vol(   0 ): 3.580E+14  Parms: SM      M1      
 Compute Stats, Diag. #     83  sIceLoad  vol(   0 ): 3.580E+14  Parms: SM      U1      
 Compute Stats, Diag. #    223  SIuice    vol(   0 ): 3.513E+14  Parms: UU      M1      
 Compute Stats, Diag. #    224  SIvice    vol(   0 ): 3.508E+14  Parms: VV      M1      
 Compute Stats, Diag. #    225  SItaux    vol(   0 ): 3.513E+14  Parms: UU      U1      
 Compute Stats, Diag. #    226  SItauy    vol(   0 ): 3.508E+14  Parms: VV      U1      
 cg2d: Sum(rhs),rhsMax =  -6.32110085590031E+01  3.04636530392624E-01
 Computing Diagnostic #     86  oceQnet      Counter:       4   Parms: SM      U1      
 Computing Diagnostic #     87  oceQsw       Counter:       4   Parms: SM      U1      
 Computing Diagnostic #     84  oceFWflx     Counter:       4   Parms: SM      U1      
 Computing Diagnostic #     85  oceSflux     Counter:       4   Parms: SM      U1      
 Computing Diagnostic #     80  oceTAUX      Counter:       4   Parms: UU      U1      
           Vector  Mate for  oceTAUX      Diagnostic #     81  oceTAUY  exists 
 Computing Diagnostic #     81  oceTAUY      Counter:       4   Parms: VV      U1      
           Vector  Mate for  oceTAUY      Diagnostic #     80  oceTAUX  exists 
 Computing Diagnostic #     26  THETA        Counter:       4   Parms: SMR     MR      
 Computing Diagnostic #     27  SALT         Counter:       4   Parms: SMR     MR      
 Computing Diagnostic #     30  UVEL         Counter:       4   Parms: UUR     MR      
           Vector  Mate for  UVEL         Diagnostic #     31  VVEL     exists 
 Computing Diagnostic #     31  VVEL         Counter:       4   Parms: VVR     MR      
           Vector  Mate for  VVEL         Diagnostic #     30  UVEL     exists 
 Computing Diagnostic #    214  SIarea       Counter:       4   Parms: SM      M1      
 Computing Diagnostic #    217  SIheff       Counter:       4   Parms: SM      M1      
 Computing Diagnostic #    219  SIhsnow      Counter:       4   Parms: SM      M1      
 Computing Diagnostic #     83  sIceLoad     Counter:       4   Parms: SM      U1      
 Computing Diagnostic #    223  SIuice       Counter:       4   Parms: UU      M1      
           Vector  Mate for  SIuice       Diagnostic #    224  SIvice   exists 
 Computing Diagnostic #    224  SIvice       Counter:       4   Parms: VV      M1      
           Vector  Mate for  SIvice       Diagnostic #    223  SIuice   exists 
 Computing Diagnostic #    225  SItaux       Counter:       4   Parms: UU      U1      
           Vector  Mate for  SItaux       Diagnostic #    226  SItauy   exists 
 Computing Diagnostic #    226  SItauy       Counter:       4   Parms: VV      U1      
           Vector  Mate for  SItauy       Diagnostic #    225  SItaux   exists 
 Computing Diagnostic #    285  SIareaN      Counter:       4   Parms: SM      MX      
 Computing Diagnostic #    284  SIheffN      Counter:       4   Parms: SM      MX      
 Computing Diagnostic #    286  SIhsnowN     Counter:       4   Parms: SM      MX      
 Compute Stats, Diag. #    214  SIarea    vol(   0 ): 3.580E+14  Parms: SM      M1      
 Compute Stats, Diag. #    217  SIheff    vol(   0 ): 3.580E+14  Parms: SM      M1      
 Compute Stats, Diag. #    219  SIhsnow   vol(   0 ): 3.580E+14  Parms: SM      M1      
 Compute Stats, Diag. #     83  sIceLoad  vol(   0 ): 3.580E+14  Parms: SM      U1      
 Compute Stats, Diag. #    223  SIuice    vol(   0 ): 3.513E+14  Parms: UU      M1      
 Compute Stats, Diag. #    224  SIvice    vol(   0 ): 3.508E+14  Parms: VV      M1      
 Compute Stats, Diag. #    225  SItaux    vol(   0 ): 3.513E+14  Parms: UU      U1      
 Compute Stats, Diag. #    226  SItauy    vol(   0 ): 3.508E+14  Parms: VV      U1      
 cg2d: Sum(rhs),rhsMax =  -6.32368497052173E+01  3.04625932958349E-01
 Compute Stats, Diag. #    214  SIarea    vol(   0 ): 3.580E+14  Parms: SM      M1      
 Compute Stats, Diag. #    217  SIheff    vol(   0 ): 3.580E+14  Parms: SM      M1      
 Compute Stats, Diag. #    219  SIhsnow   vol(   0 ): 3.580E+14  Parms: SM      M1      
 Compute Stats, Diag. #     83  sIceLoad  vol(   0 ): 3.580E+14  Parms: SM      U1      
 Compute Stats, Diag. #    223  SIuice    vol(   0 ): 3.513E+14  Parms: UU      M1      
 Compute Stats, Diag. #    224  SIvice    vol(   0 ): 3.508E+14  Parms: VV      M1      
 Compute Stats, Diag. #    225  SItaux    vol(   0 ): 3.513E+14  Parms: UU      U1      
 Compute Stats, Diag. #    226  SItauy    vol(   0 ): 3.508E+14  Parms: VV      U1      
 cg2d: Sum(rhs),rhsMax =  -6.32641154199399E+01  3.04612020898208E-01
 Compute Stats, Diag. #    214  SIarea    vol(   0 ): 3.580E+14  Parms: SM      M1      
 Compute Stats, Diag. #    217  SIheff    vol(   0 ): 3.580E+14  Parms: SM      M1      
 Compute Stats, Diag. #    219  SIhsnow   vol(   0 ): 3.580E+14  Parms: SM      M1      
 Compute Stats, Diag. #     83  sIceLoad  vol(   0 ): 3.580E+14  Parms: SM      U1      
 Compute Stats, Diag. #    223  SIuice    vol(   0 ): 3.513E+14  Parms: UU      M1      
 Compute Stats, Diag. #    224  SIvice    vol(   0 ): 3.508E+14  Parms: VV      M1      
 Compute Stats, Diag. #    225  SItaux    vol(   0 ): 3.513E+14  Parms: UU      U1      
 Compute Stats, Diag. #    226  SItauy    vol(   0 ): 3.508E+14  Parms: VV      U1      
 cg2d: Sum(rhs),rhsMax =  -6.32990884668084E+01  3.04596023645748E-01
 Compute Stats, Diag. #    214  SIarea    vol(   0 ): 3.580E+14  Parms: SM      M1      
 Compute Stats, Diag. #    217  SIheff    vol(   0 ): 3.580E+14  Parms: SM      M1      
 Compute Stats, Diag. #    219  SIhsnow   vol(   0 ): 3.580E+14  Parms: SM      M1      
 Compute Stats, Diag. #     83  sIceLoad  vol(   0 ): 3.580E+14  Parms: SM      U1      
 Compute Stats, Diag. #    223  SIuice    vol(   0 ): 3.513E+14  Parms: UU      M1      
 Compute Stats, Diag. #    224  SIvice    vol(   0 ): 3.508E+14  Parms: VV      M1      
 Compute Stats, Diag. #    225  SItaux    vol(   0 ): 3.513E+14  Parms: UU      U1      
 Compute Stats, Diag. #    226  SItauy    vol(   0 ): 3.508E+14  Parms: VV      U1      
 cg2d: Sum(rhs),rhsMax =  -6.33334277977500E+01  3.04577516803090E-01
(PID.TID 0000.0001)      cg2d_init_res =   4.00075867992228E-02
(PID.TID 0000.0001)      cg2d_iters(min,last) =      -1      23
(PID.TID 0000.0001)      cg2d_last_res =   2.19443835731473E-05
(PID.TID 0000.0001) // =======================================================
(PID.TID 0000.0001) // Begin MONITOR dynamic field statistics
(PID.TID 0000.0001) // =======================================================
(PID.TID 0000.0001) %MON time_tsnumber                =                  1408
(PID.TID 0000.0001) %MON time_secondsf                =   1.2672000000000E+06
(PID.TID 0000.0001) %MON dynstat_eta_max              =   1.0195637705523E+00
(PID.TID 0000.0001) %MON dynstat_eta_min              =  -1.8966537601842E+00
(PID.TID 0000.0001) %MON dynstat_eta_mean             =   2.0034385947901E-03
(PID.TID 0000.0001) %MON dynstat_eta_sd               =   6.2962986098431E-01
(PID.TID 0000.0001) %MON dynstat_eta_del2             =   4.9273714068615E-05
(PID.TID 0000.0001) %MON dynstat_uvel_max             =   6.2665927199411E-01
(PID.TID 0000.0001) %MON dynstat_uvel_min             =  -1.0343789635596E+00
(PID.TID 0000.0001) %MON dynstat_uvel_mean            =   1.3363905374436E-03
(PID.TID 0000.0001) %MON dynstat_uvel_sd              =   1.8094277199802E-02
(PID.TID 0000.0001) %MON dynstat_uvel_del2            =   7.2364448636332E-06
(PID.TID 0000.0001) %MON dynstat_vvel_max             =   6.7879324969912E-01
(PID.TID 0000.0001) %MON dynstat_vvel_min             =  -1.1953297489772E+00
(PID.TID 0000.0001) %MON dynstat_vvel_mean            =   1.0310192867656E-03
(PID.TID 0000.0001) %MON dynstat_vvel_sd              =   1.9648593387090E-02
(PID.TID 0000.0001) %MON dynstat_vvel_del2            =   7.3967718432521E-06
(PID.TID 0000.0001) %MON dynstat_wvel_max             =   3.4642842856173E-04
(PID.TID 0000.0001) %MON dynstat_wvel_min             =  -7.7786087581224E-04
(PID.TID 0000.0001) %MON dynstat_wvel_mean            =  -2.5591821728650E-09
(PID.TID 0000.0001) %MON dynstat_wvel_sd              =   1.5394201522440E-05
(PID.TID 0000.0001) %MON dynstat_wvel_del2            =   1.5639532481897E-08
(PID.TID 0000.0001) %MON dynstat_theta_max            =   3.1107639902834E+01
(PID.TID 0000.0001) %MON dynstat_theta_min            =  -2.0393000959622E+00
(PID.TID 0000.0001) %MON dynstat_theta_mean           =   3.5898950644368E+00
(PID.TID 0000.0001) %MON dynstat_theta_sd             =   4.4367492340205E+00
(PID.TID 0000.0001) %MON dynstat_theta_del2           =   8.8816819412472E-05
(PID.TID 0000.0001) %MON dynstat_salt_max             =   4.0711557346274E+01
(PID.TID 0000.0001) %MON dynstat_salt_min             =   7.4277832911974E+00
(PID.TID 0000.0001) %MON dynstat_salt_mean            =   3.4725553711582E+01
(PID.TID 0000.0001) %MON dynstat_salt_sd              =   3.7720223566771E-01
(PID.TID 0000.0001) %MON dynstat_salt_del2            =   3.7527645319816E-05
(PID.TID 0000.0001) %MON dynstat_sst_max              =   3.1107623966030E+01
(PID.TID 0000.0001) %MON dynstat_sst_min              =  -1.8111249876516E+00
(PID.TID 0000.0001) %MON dynstat_sst_mean             =   1.8416839308952E+01
(PID.TID 0000.0001) %MON dynstat_sst_sd               =   1.0333474940751E+01
(PID.TID 0000.0001) %MON dynstat_sst_del2             =   7.8784839597766E-04
(PID.TID 0000.0001) %MON dynstat_sss_max              =   3.9097898130718E+01
(PID.TID 0000.0001) %MON dynstat_sss_min              =   7.4277832911974E+00
(PID.TID 0000.0001) %MON dynstat_sss_mean             =   3.4702403056009E+01
(PID.TID 0000.0001) %MON dynstat_sss_sd               =   1.1929960053511E+00
(PID.TID 0000.0001) %MON dynstat_sss_del2             =   1.1169927343714E-03
(PID.TID 0000.0001) %MON forcing_qnet_max             =   6.2244952392578E+02
(PID.TID 0000.0001) %MON forcing_qnet_min             =  -9.2036823521810E+02
(PID.TID 0000.0001) %MON forcing_qnet_mean            =   2.3372030782347E+01
(PID.TID 0000.0001) %MON forcing_qnet_sd              =   2.0712302809336E+02
(PID.TID 0000.0001) %MON forcing_qnet_del2            =   3.1599578011230E-01
(PID.TID 0000.0001) %MON forcing_qsw_max              =   0.0000000000000E+00
(PID.TID 0000.0001) %MON forcing_qsw_min              =  -1.0506153966186E+02
(PID.TID 0000.0001) %MON forcing_qsw_mean             =  -1.5458539650290E+01
(PID.TID 0000.0001) %MON forcing_qsw_sd               =   2.7611267234291E+01
(PID.TID 0000.0001) %MON forcing_qsw_del2             =   2.0036811690138E-02
(PID.TID 0000.0001) %MON forcing_empmr_max            =   1.4758300967515E-03
(PID.TID 0000.0001) %MON forcing_empmr_min            =  -2.5742491707206E-02
(PID.TID 0000.0001) %MON forcing_empmr_mean           =  -1.2419603653384E-06
(PID.TID 0000.0001) %MON forcing_empmr_sd             =   1.6927376727880E-04
(PID.TID 0000.0001) %MON forcing_empmr_del2           =   1.6712657166058E-06
(PID.TID 0000.0001) %MON forcing_fu_max               =   1.0988381505013E+00
(PID.TID 0000.0001) %MON forcing_fu_min               =  -9.5412683486938E-01
(PID.TID 0000.0001) %MON forcing_fu_mean              =   5.9116845521976E-03
(PID.TID 0000.0001) %MON forcing_fu_sd                =   1.3109908061287E-01
(PID.TID 0000.0001) %MON forcing_fu_del2              =   1.6211180618316E-04
(PID.TID 0000.0001) %MON forcing_fv_max               =   1.0567350387573E+00
(PID.TID 0000.0001) %MON forcing_fv_min               =  -8.9424368739128E-01
(PID.TID 0000.0001) %MON forcing_fv_mean              =  -4.5388133450871E-03
(PID.TID 0000.0001) %MON forcing_fv_sd                =   1.1797088745090E-01
(PID.TID 0000.0001) %MON forcing_fv_del2              =   1.6979923577474E-04
(PID.TID 0000.0001) %MON trAdv_CFL_u_max              =   1.4217886796771E-02
(PID.TID 0000.0001) %MON trAdv_CFL_v_max              =   1.3771285450514E-02
(PID.TID 0000.0001) %MON trAdv_CFL_w_max              =   1.9933843856025E-02
(PID.TID 0000.0001) %MON advcfl_uvel_max              =   1.2493519850273E-02
(PID.TID 0000.0001) %MON advcfl_vvel_max              =   1.2312578858175E-02
(PID.TID 0000.0001) %MON advcfl_wvel_max              =   2.2596629762763E-02
(PID.TID 0000.0001) %MON advcfl_W_hf_max              =   2.2664319013016E-02
(PID.TID 0000.0001) %MON pe_b_mean                    =   5.2147449907732E-04
(PID.TID 0000.0001) %MON ke_max                       =   7.9024160109802E-01
(PID.TID 0000.0001) %MON ke_mean                      =   3.4540637942429E-04
(PID.TID 0000.0001) %MON ke_vol                       =   1.3349985938092E+18
(PID.TID 0000.0001) %MON vort_r_min                   =  -1.4446277704489E-05
(PID.TID 0000.0001) %MON vort_r_max                   =   1.6225496262440E-05
(PID.TID 0000.0001) %MON vort_a_mean                  =  -1.9727864647440E-05
(PID.TID 0000.0001) %MON vort_a_sd                    =   7.4542982209714E-05
(PID.TID 0000.0001) %MON vort_p_mean                  =  -2.1760522441019E-05
(PID.TID 0000.0001) %MON vort_p_sd                    =   9.7246423321835E-05
(PID.TID 0000.0001) %MON surfExpan_theta_mean         =   8.2808713043259E-10
(PID.TID 0000.0001) %MON surfExpan_salt_mean          =   2.3804588952398E-08
(PID.TID 0000.0001) // =======================================================
(PID.TID 0000.0001) // End MONITOR dynamic field statistics
(PID.TID 0000.0001) // =======================================================
(PID.TID 0000.0001) // =======================================================
(PID.TID 0000.0001) // Begin MONITOR SEAICE statistics
(PID.TID 0000.0001) // =======================================================
(PID.TID 0000.0001) %MON seaice_tsnumber              =                  1408
(PID.TID 0000.0001) %MON seaice_time_sec              =   1.2672000000000E+06
(PID.TID 0000.0001) %MON seaice_uice_max              =   4.0000000000000E-01
(PID.TID 0000.0001) %MON seaice_uice_min              =  -4.0000000000000E-01
(PID.TID 0000.0001) %MON seaice_uice_mean             =  -8.3054598624025E-03
(PID.TID 0000.0001) %MON seaice_uice_sd               =   1.9802383574176E-01
(PID.TID 0000.0001) %MON seaice_uice_del2             =   2.2931571122150E-04
(PID.TID 0000.0001) %MON seaice_vice_max              =   4.0000000000000E-01
(PID.TID 0000.0001) %MON seaice_vice_min              =  -4.0000000000000E-01
(PID.TID 0000.0001) %MON seaice_vice_mean             =  -2.1960776359499E-02
(PID.TID 0000.0001) %MON seaice_vice_sd               =   2.1302038025672E-01
(PID.TID 0000.0001) %MON seaice_vice_del2             =   2.3932563818061E-04
(PID.TID 0000.0001) %MON seaice_area_max              =   9.9999993853271E-01
(PID.TID 0000.0001) %MON seaice_area_min              =   0.0000000000000E+00
(PID.TID 0000.0001) %MON seaice_area_mean             =   6.3782047363822E-02
(PID.TID 0000.0001) %MON seaice_area_sd               =   2.2624143328651E-01
(PID.TID 0000.0001) %MON seaice_area_del2             =   3.6042673092432E-04
(PID.TID 0000.0001) %MON seaice_heff_max              =   2.4849550459185E+01
(PID.TID 0000.0001) %MON seaice_heff_min              =   0.0000000000000E+00
(PID.TID 0000.0001) %MON seaice_heff_mean             =   2.1077521911317E-01
(PID.TID 0000.0001) %MON seaice_heff_sd               =   1.0650983317600E+00
(PID.TID 0000.0001) %MON seaice_heff_del2             =   3.7931483020191E-03
(PID.TID 0000.0001) %MON seaice_hsnow_max             =   8.2077921684104E+00
(PID.TID 0000.0001) %MON seaice_hsnow_min             =   0.0000000000000E+00
(PID.TID 0000.0001) %MON seaice_hsnow_mean            =   2.3846598716192E-02
(PID.TID 0000.0001) %MON seaice_hsnow_sd              =   1.5562801883352E-01
(PID.TID 0000.0001) %MON seaice_hsnow_del2            =   1.2308057176299E-03
(PID.TID 0000.0001) // =======================================================
(PID.TID 0000.0001) // End MONITOR SEAICE statistics
(PID.TID 0000.0001) // =======================================================
 Computing Diagnostic #     86  oceQnet      Counter:       4   Parms: SM      U1      
 Computing Diagnostic #     87  oceQsw       Counter:       4   Parms: SM      U1      
 Computing Diagnostic #     84  oceFWflx     Counter:       4   Parms: SM      U1      
 Computing Diagnostic #     85  oceSflux     Counter:       4   Parms: SM      U1      
 Computing Diagnostic #     80  oceTAUX      Counter:       4   Parms: UU      U1      
           Vector  Mate for  oceTAUX      Diagnostic #     81  oceTAUY  exists 
 Computing Diagnostic #     81  oceTAUY      Counter:       4   Parms: VV      U1      
           Vector  Mate for  oceTAUY      Diagnostic #     80  oceTAUX  exists 
 Computing Diagnostic #     26  THETA        Counter:       4   Parms: SMR     MR      
 Computing Diagnostic #     27  SALT         Counter:       4   Parms: SMR     MR      
 Computing Diagnostic #     30  UVEL         Counter:       4   Parms: UUR     MR      
           Vector  Mate for  UVEL         Diagnostic #     31  VVEL     exists 
 Computing Diagnostic #     31  VVEL         Counter:       4   Parms: VVR     MR      
           Vector  Mate for  VVEL         Diagnostic #     30  UVEL     exists 
 Computing Diagnostic #    214  SIarea       Counter:       4   Parms: SM      M1      
 Computing Diagnostic #    217  SIheff       Counter:       4   Parms: SM      M1      
 Computing Diagnostic #    219  SIhsnow      Counter:       4   Parms: SM      M1      
 Computing Diagnostic #     83  sIceLoad     Counter:       4   Parms: SM      U1      
 Computing Diagnostic #    223  SIuice       Counter:       4   Parms: UU      M1      
           Vector  Mate for  SIuice       Diagnostic #    224  SIvice   exists 
 Computing Diagnostic #    224  SIvice       Counter:       4   Parms: VV      M1      
           Vector  Mate for  SIvice       Diagnostic #    223  SIuice   exists 
 Computing Diagnostic #    225  SItaux       Counter:       4   Parms: UU      U1      
           Vector  Mate for  SItaux       Diagnostic #    226  SItauy   exists 
 Computing Diagnostic #    226  SItauy       Counter:       4   Parms: VV      U1      
           Vector  Mate for  SItauy       Diagnostic #    225  SItaux   exists 
 Computing Diagnostic #    285  SIareaN      Counter:       4   Parms: SM      MX      
 Computing Diagnostic #    284  SIheffN      Counter:       4   Parms: SM      MX      
 Computing Diagnostic #    286  SIhsnowN     Counter:       4   Parms: SM      MX      
 Compute Stats, Diag. #    214  SIarea    vol(   0 ): 3.580E+14  Parms: SM      M1      
 Compute Stats, Diag. #    217  SIheff    vol(   0 ): 3.580E+14  Parms: SM      M1      
 Compute Stats, Diag. #    219  SIhsnow   vol(   0 ): 3.580E+14  Parms: SM      M1      
 Compute Stats, Diag. #     83  sIceLoad  vol(   0 ): 3.580E+14  Parms: SM      U1      
 Compute Stats, Diag. #    223  SIuice    vol(   0 ): 3.513E+14  Parms: UU      M1      
 Compute Stats, Diag. #    224  SIvice    vol(   0 ): 3.508E+14  Parms: VV      M1      
 Compute Stats, Diag. #    225  SItaux    vol(   0 ): 3.513E+14  Parms: UU      U1      
 Compute Stats, Diag. #    226  SItauy    vol(   0 ): 3.508E+14  Parms: VV      U1      
 cg2d: Sum(rhs),rhsMax =  -6.33699307137790E+01  3.04557529068170E-01
 Compute Stats, Diag. #    214  SIarea    vol(   0 ): 3.580E+14  Parms: SM      M1      
 Compute Stats, Diag. #    217  SIheff    vol(   0 ): 3.580E+14  Parms: SM      M1      
 Compute Stats, Diag. #    219  SIhsnow   vol(   0 ): 3.580E+14  Parms: SM      M1      
 Compute Stats, Diag. #     83  sIceLoad  vol(   0 ): 3.580E+14  Parms: SM      U1      
 Compute Stats, Diag. #    223  SIuice    vol(   0 ): 3.513E+14  Parms: UU      M1      
 Compute Stats, Diag. #    224  SIvice    vol(   0 ): 3.508E+14  Parms: VV      M1      
 Compute Stats, Diag. #    225  SItaux    vol(   0 ): 3.513E+14  Parms: UU      U1      
 Compute Stats, Diag. #    226  SItauy    vol(   0 ): 3.508E+14  Parms: VV      U1      
 cg2d: Sum(rhs),rhsMax =  -6.33993379573038E+01  3.04536102808145E-01
 Compute Stats, Diag. #    214  SIarea    vol(   0 ): 3.580E+14  Parms: SM      M1      
 Compute Stats, Diag. #    217  SIheff    vol(   0 ): 3.580E+14  Parms: SM      M1      
 Compute Stats, Diag. #    219  SIhsnow   vol(   0 ): 3.580E+14  Parms: SM      M1      
 Compute Stats, Diag. #     83  sIceLoad  vol(   0 ): 3.580E+14  Parms: SM      U1      
 Compute Stats, Diag. #    223  SIuice    vol(   0 ): 3.513E+14  Parms: UU      M1      
 Compute Stats, Diag. #    224  SIvice    vol(   0 ): 3.508E+14  Parms: VV      M1      
 Compute Stats, Diag. #    225  SItaux    vol(   0 ): 3.513E+14  Parms: UU      U1      
 Compute Stats, Diag. #    226  SItauy    vol(   0 ): 3.508E+14  Parms: VV      U1      
 cg2d: Sum(rhs),rhsMax =  -6.34469756560543E+01  3.04513559008704E-01
 Compute Stats, Diag. #    214  SIarea    vol(   0 ): 3.580E+14  Parms: SM      M1      
 Compute Stats, Diag. #    217  SIheff    vol(   0 ): 3.580E+14  Parms: SM      M1      
 Compute Stats, Diag. #    219  SIhsnow   vol(   0 ): 3.580E+14  Parms: SM      M1      
 Compute Stats, Diag. #     83  sIceLoad  vol(   0 ): 3.580E+14  Parms: SM      U1      
 Compute Stats, Diag. #    223  SIuice    vol(   0 ): 3.513E+14  Parms: UU      M1      
 Compute Stats, Diag. #    224  SIvice    vol(   0 ): 3.508E+14  Parms: VV      M1      
 Compute Stats, Diag. #    225  SItaux    vol(   0 ): 3.513E+14  Parms: UU      U1      
 Compute Stats, Diag. #    226  SItauy    vol(   0 ): 3.508E+14  Parms: VV      U1      
 cg2d: Sum(rhs),rhsMax =  -6.34935163200161E+01  3.04489825098248E-01
 Computing Diagnostic #     86  oceQnet      Counter:       4   Parms: SM      U1      
 Computing Diagnostic #     87  oceQsw       Counter:       4   Parms: SM      U1      
 Computing Diagnostic #     84  oceFWflx     Counter:       4   Parms: SM      U1      
 Computing Diagnostic #     85  oceSflux     Counter:       4   Parms: SM      U1      
 Computing Diagnostic #     80  oceTAUX      Counter:       4   Parms: UU      U1      
           Vector  Mate for  oceTAUX      Diagnostic #     81  oceTAUY  exists 
 Computing Diagnostic #     81  oceTAUY      Counter:       4   Parms: VV      U1      
           Vector  Mate for  oceTAUY      Diagnostic #     80  oceTAUX  exists 
 Computing Diagnostic #     26  THETA        Counter:       4   Parms: SMR     MR      
 Computing Diagnostic #     27  SALT         Counter:       4   Parms: SMR     MR      
 Computing Diagnostic #     30  UVEL         Counter:       4   Parms: UUR     MR      
           Vector  Mate for  UVEL         Diagnostic #     31  VVEL     exists 
 Computing Diagnostic #     31  VVEL         Counter:       4   Parms: VVR     MR      
           Vector  Mate for  VVEL         Diagnostic #     30  UVEL     exists 
 Computing Diagnostic #    214  SIarea       Counter:       4   Parms: SM      M1      
 Computing Diagnostic #    217  SIheff       Counter:       4   Parms: SM      M1      
 Computing Diagnostic #    219  SIhsnow      Counter:       4   Parms: SM      M1      
 Computing Diagnostic #     83  sIceLoad     Counter:       4   Parms: SM      U1      
 Computing Diagnostic #    223  SIuice       Counter:       4   Parms: UU      M1      
           Vector  Mate for  SIuice       Diagnostic #    224  SIvice   exists 
 Computing Diagnostic #    224  SIvice       Counter:       4   Parms: VV      M1      
           Vector  Mate for  SIvice       Diagnostic #    223  SIuice   exists 
 Computing Diagnostic #    225  SItaux       Counter:       4   Parms: UU      U1      
           Vector  Mate for  SItaux       Diagnostic #    226  SItauy   exists 
 Computing Diagnostic #    226  SItauy       Counter:       4   Parms: VV      U1      
           Vector  Mate for  SItauy       Diagnostic #    225  SItaux   exists 
 Computing Diagnostic #    285  SIareaN      Counter:       4   Parms: SM      MX      
 Computing Diagnostic #    284  SIheffN      Counter:       4   Parms: SM      MX      
 Computing Diagnostic #    286  SIhsnowN     Counter:       4   Parms: SM      MX      
 Compute Stats, Diag. #    214  SIarea    vol(   0 ): 3.580E+14  Parms: SM      M1      
 Compute Stats, Diag. #    217  SIheff    vol(   0 ): 3.580E+14  Parms: SM      M1      
 Compute Stats, Diag. #    219  SIhsnow   vol(   0 ): 3.580E+14  Parms: SM      M1      
 Compute Stats, Diag. #     83  sIceLoad  vol(   0 ): 3.580E+14  Parms: SM      U1      
 Compute Stats, Diag. #    223  SIuice    vol(   0 ): 3.513E+14  Parms: UU      M1      
 Compute Stats, Diag. #    224  SIvice    vol(   0 ): 3.508E+14  Parms: VV      M1      
 Compute Stats, Diag. #    225  SItaux    vol(   0 ): 3.513E+14  Parms: UU      U1      
 Compute Stats, Diag. #    226  SItauy    vol(   0 ): 3.508E+14  Parms: VV      U1      
 cg2d: Sum(rhs),rhsMax =  -6.35374383217721E+01  3.04464752680337E-01
 Compute Stats, Diag. #    214  SIarea    vol(   0 ): 3.580E+14  Parms: SM      M1      
 Compute Stats, Diag. #    217  SIheff    vol(   0 ): 3.580E+14  Parms: SM      M1      
 Compute Stats, Diag. #    219  SIhsnow   vol(   0 ): 3.580E+14  Parms: SM      M1      
 Compute Stats, Diag. #     83  sIceLoad  vol(   0 ): 3.580E+14  Parms: SM      U1      
 Compute Stats, Diag. #    223  SIuice    vol(   0 ): 3.513E+14  Parms: UU      M1      
 Compute Stats, Diag. #    224  SIvice    vol(   0 ): 3.508E+14  Parms: VV      M1      
 Compute Stats, Diag. #    225  SItaux    vol(   0 ): 3.513E+14  Parms: UU      U1      
 Compute Stats, Diag. #    226  SItauy    vol(   0 ): 3.508E+14  Parms: VV      U1      
 cg2d: Sum(rhs),rhsMax =  -6.35818359060226E+01  3.04439028014914E-01
 Compute Stats, Diag. #    214  SIarea    vol(   0 ): 3.580E+14  Parms: SM      M1      
 Compute Stats, Diag. #    217  SIheff    vol(   0 ): 3.580E+14  Parms: SM      M1      
 Compute Stats, Diag. #    219  SIhsnow   vol(   0 ): 3.580E+14  Parms: SM      M1      
 Compute Stats, Diag. #     83  sIceLoad  vol(   0 ): 3.580E+14  Parms: SM      U1      
 Compute Stats, Diag. #    223  SIuice    vol(   0 ): 3.513E+14  Parms: UU      M1      
 Compute Stats, Diag. #    224  SIvice    vol(   0 ): 3.508E+14  Parms: VV      M1      
 Compute Stats, Diag. #    225  SItaux    vol(   0 ): 3.513E+14  Parms: UU      U1      
 Compute Stats, Diag. #    226  SItauy    vol(   0 ): 3.508E+14  Parms: VV      U1      
 cg2d: Sum(rhs),rhsMax =  -6.36401419331098E+01  3.04412506026269E-01
 Compute Stats, Diag. #    214  SIarea    vol(   0 ): 3.580E+14  Parms: SM      M1      
 Compute Stats, Diag. #    217  SIheff    vol(   0 ): 3.580E+14  Parms: SM      M1      
 Compute Stats, Diag. #    219  SIhsnow   vol(   0 ): 3.580E+14  Parms: SM      M1      
 Compute Stats, Diag. #     83  sIceLoad  vol(   0 ): 3.580E+14  Parms: SM      U1      
 Compute Stats, Diag. #    223  SIuice    vol(   0 ): 3.513E+14  Parms: UU      M1      
 Compute Stats, Diag. #    224  SIvice    vol(   0 ): 3.508E+14  Parms: VV      M1      
 Compute Stats, Diag. #    225  SItaux    vol(   0 ): 3.513E+14  Parms: UU      U1      
 Compute Stats, Diag. #    226  SItauy    vol(   0 ): 3.508E+14  Parms: VV      U1      
 cg2d: Sum(rhs),rhsMax =  -6.37003004597613E+01  3.04385153699244E-01
(PID.TID 0000.0001)      cg2d_init_res =   4.00498878098770E-02
(PID.TID 0000.0001)      cg2d_iters(min,last) =      -1      23
(PID.TID 0000.0001)      cg2d_last_res =   2.18730435542402E-05
(PID.TID 0000.0001) // =======================================================
(PID.TID 0000.0001) // Begin MONITOR dynamic field statistics
(PID.TID 0000.0001) // =======================================================
(PID.TID 0000.0001) %MON time_tsnumber                =                  1416
(PID.TID 0000.0001) %MON time_secondsf                =   1.2744000000000E+06
(PID.TID 0000.0001) %MON dynstat_eta_max              =   1.0202061466270E+00
(PID.TID 0000.0001) %MON dynstat_eta_min              =  -1.8983755031749E+00
(PID.TID 0000.0001) %MON dynstat_eta_mean             =   2.0150439488033E-03
(PID.TID 0000.0001) %MON dynstat_eta_sd               =   6.2959163709534E-01
(PID.TID 0000.0001) %MON dynstat_eta_del2             =   4.9151929599021E-05
(PID.TID 0000.0001) %MON dynstat_uvel_max             =   6.2369978180546E-01
(PID.TID 0000.0001) %MON dynstat_uvel_min             =  -1.0478854918124E+00
(PID.TID 0000.0001) %MON dynstat_uvel_mean            =   1.3314103447460E-03
(PID.TID 0000.0001) %MON dynstat_uvel_sd              =   1.8088781907777E-02
(PID.TID 0000.0001) %MON dynstat_uvel_del2            =   7.2066396358691E-06
(PID.TID 0000.0001) %MON dynstat_vvel_max             =   6.8586716298198E-01
(PID.TID 0000.0001) %MON dynstat_vvel_min             =  -1.2055962828954E+00
(PID.TID 0000.0001) %MON dynstat_vvel_mean            =   1.0301340565434E-03
(PID.TID 0000.0001) %MON dynstat_vvel_sd              =   1.9650155723517E-02
(PID.TID 0000.0001) %MON dynstat_vvel_del2            =   7.3703521426193E-06
(PID.TID 0000.0001) %MON dynstat_wvel_max             =   3.8464864582500E-04
(PID.TID 0000.0001) %MON dynstat_wvel_min             =  -7.7783944804475E-04
(PID.TID 0000.0001) %MON dynstat_wvel_mean            =  -2.6495616036435E-09
(PID.TID 0000.0001) %MON dynstat_wvel_sd              =   1.5399866475567E-05
(PID.TID 0000.0001) %MON dynstat_wvel_del2            =   1.5495872029477E-08
(PID.TID 0000.0001) %MON dynstat_theta_max            =   3.1088042039715E+01
(PID.TID 0000.0001) %MON dynstat_theta_min            =  -2.0392869711378E+00
(PID.TID 0000.0001) %MON dynstat_theta_mean           =   3.5898862482744E+00
(PID.TID 0000.0001) %MON dynstat_theta_sd             =   4.4367250409232E+00
(PID.TID 0000.0001) %MON dynstat_theta_del2           =   8.8788503875730E-05
(PID.TID 0000.0001) %MON dynstat_salt_max             =   4.0711557613125E+01
(PID.TID 0000.0001) %MON dynstat_salt_min             =   7.5453998387979E+00
(PID.TID 0000.0001) %MON dynstat_salt_mean            =   3.4725553605709E+01
(PID.TID 0000.0001) %MON dynstat_salt_sd              =   3.7720292269305E-01
(PID.TID 0000.0001) %MON dynstat_salt_del2            =   3.7408517274979E-05
(PID.TID 0000.0001) %MON dynstat_sst_max              =   3.1088025750347E+01
(PID.TID 0000.0001) %MON dynstat_sst_min              =  -1.8107649408366E+00
(PID.TID 0000.0001) %MON dynstat_sst_mean             =   1.8416744751129E+01
(PID.TID 0000.0001) %MON dynstat_sst_sd               =   1.0334011163215E+01
(PID.TID 0000.0001) %MON dynstat_sst_del2             =   7.8702116465541E-04
(PID.TID 0000.0001) %MON dynstat_sss_max              =   3.9097845423778E+01
(PID.TID 0000.0001) %MON dynstat_sss_min              =   7.5453998387979E+00
(PID.TID 0000.0001) %MON dynstat_sss_mean             =   3.4702432575425E+01
(PID.TID 0000.0001) %MON dynstat_sss_sd               =   1.1930621302769E+00
(PID.TID 0000.0001) %MON dynstat_sss_del2             =   1.1094781305322E-03
(PID.TID 0000.0001) %MON forcing_qnet_max             =   9.2386279296875E+02
(PID.TID 0000.0001) %MON forcing_qnet_min             =  -7.1646216701551E+02
(PID.TID 0000.0001) %MON forcing_qnet_mean            =   1.4677719520387E+01
(PID.TID 0000.0001) %MON forcing_qnet_sd              =   2.1586742691991E+02
(PID.TID 0000.0001) %MON forcing_qnet_del2            =   3.0908959466956E-01
(PID.TID 0000.0001) %MON forcing_qsw_max              =   0.0000000000000E+00
(PID.TID 0000.0001) %MON forcing_qsw_min              =  -1.0840223322847E+02
(PID.TID 0000.0001) %MON forcing_qsw_mean             =  -1.6976346806157E+01
(PID.TID 0000.0001) %MON forcing_qsw_sd               =   2.9095436943663E+01
(PID.TID 0000.0001) %MON forcing_qsw_del2             =   2.0637332530844E-02
(PID.TID 0000.0001) %MON forcing_empmr_max            =   8.9002825552598E-04
(PID.TID 0000.0001) %MON forcing_empmr_min            =  -3.1555157154799E-02
(PID.TID 0000.0001) %MON forcing_empmr_mean           =  -2.1757705725069E-06
(PID.TID 0000.0001) %MON forcing_empmr_sd             =   1.8780123903555E-04
(PID.TID 0000.0001) %MON forcing_empmr_del2           =   1.7523531211485E-06
(PID.TID 0000.0001) %MON forcing_fu_max               =   1.1285966634750E+00
(PID.TID 0000.0001) %MON forcing_fu_min               =  -8.8383078575134E-01
(PID.TID 0000.0001) %MON forcing_fu_mean              =   6.3946309311678E-03
(PID.TID 0000.0001) %MON forcing_fu_sd                =   1.3087509269599E-01
(PID.TID 0000.0001) %MON forcing_fu_del2              =   1.5987776260135E-04
(PID.TID 0000.0001) %MON forcing_fv_max               =   9.5723390579224E-01
(PID.TID 0000.0001) %MON forcing_fv_min               =  -8.9517420530319E-01
(PID.TID 0000.0001) %MON forcing_fv_mean              =  -4.1572428536983E-03
(PID.TID 0000.0001) %MON forcing_fv_sd                =   1.1648864736453E-01
(PID.TID 0000.0001) %MON forcing_fv_del2              =   1.6661902032109E-04
(PID.TID 0000.0001) %MON trAdv_CFL_u_max              =   1.4249503314823E-02
(PID.TID 0000.0001) %MON trAdv_CFL_v_max              =   1.3938857679691E-02
(PID.TID 0000.0001) %MON trAdv_CFL_w_max              =   2.2821168622696E-02
(PID.TID 0000.0001) %MON advcfl_uvel_max              =   1.2524611186642E-02
(PID.TID 0000.0001) %MON advcfl_vvel_max              =   1.2383936364896E-02
(PID.TID 0000.0001) %MON advcfl_wvel_max              =   2.0913594233863E-02
(PID.TID 0000.0001) %MON advcfl_W_hf_max              =   2.1935700977411E-02
(PID.TID 0000.0001) %MON pe_b_mean                    =   5.2141124559979E-04
(PID.TID 0000.0001) %MON ke_max                       =   8.0643686989310E-01
(PID.TID 0000.0001) %MON ke_mean                      =   3.4533284539899E-04
(PID.TID 0000.0001) %MON ke_vol                       =   1.3349985976717E+18
(PID.TID 0000.0001) %MON vort_r_min                   =  -1.4754653106059E-05
(PID.TID 0000.0001) %MON vort_r_max                   =   1.6012715462337E-05
(PID.TID 0000.0001) %MON vort_a_mean                  =  -1.9727864647440E-05
(PID.TID 0000.0001) %MON vort_a_sd                    =   7.4542980943113E-05
(PID.TID 0000.0001) %MON vort_p_mean                  =  -2.1760522345859E-05
(PID.TID 0000.0001) %MON vort_p_sd                    =   9.7246490436890E-05
(PID.TID 0000.0001) %MON surfExpan_theta_mean         =  -2.5526286369520E-09
(PID.TID 0000.0001) %MON surfExpan_salt_mean          =   2.3518954084728E-08
(PID.TID 0000.0001) // =======================================================
(PID.TID 0000.0001) // End MONITOR dynamic field statistics
(PID.TID 0000.0001) // =======================================================
(PID.TID 0000.0001) // =======================================================
(PID.TID 0000.0001) // Begin MONITOR SEAICE statistics
(PID.TID 0000.0001) // =======================================================
(PID.TID 0000.0001) %MON seaice_tsnumber              =                  1416
(PID.TID 0000.0001) %MON seaice_time_sec              =   1.2744000000000E+06
(PID.TID 0000.0001) %MON seaice_uice_max              =   4.0000000000000E-01
(PID.TID 0000.0001) %MON seaice_uice_min              =  -4.0000000000000E-01
(PID.TID 0000.0001) %MON seaice_uice_mean             =  -8.3054598624025E-03
(PID.TID 0000.0001) %MON seaice_uice_sd               =   1.9802383574176E-01
(PID.TID 0000.0001) %MON seaice_uice_del2             =   2.2931571122150E-04
(PID.TID 0000.0001) %MON seaice_vice_max              =   4.0000000000000E-01
(PID.TID 0000.0001) %MON seaice_vice_min              =  -4.0000000000000E-01
(PID.TID 0000.0001) %MON seaice_vice_mean             =  -2.1960776359499E-02
(PID.TID 0000.0001) %MON seaice_vice_sd               =   2.1302038025672E-01
(PID.TID 0000.0001) %MON seaice_vice_del2             =   2.3932563818061E-04
(PID.TID 0000.0001) %MON seaice_area_max              =   1.0000000000000E+00
(PID.TID 0000.0001) %MON seaice_area_min              =   0.0000000000000E+00
(PID.TID 0000.0001) %MON seaice_area_mean             =   6.3771516042585E-02
(PID.TID 0000.0001) %MON seaice_area_sd               =   2.2623051052904E-01
(PID.TID 0000.0001) %MON seaice_area_del2             =   3.6024974282859E-04
(PID.TID 0000.0001) %MON seaice_heff_max              =   2.4848671521351E+01
(PID.TID 0000.0001) %MON seaice_heff_min              =   0.0000000000000E+00
(PID.TID 0000.0001) %MON seaice_heff_mean             =   2.1076341410249E-01
(PID.TID 0000.0001) %MON seaice_heff_sd               =   1.0650927217524E+00
(PID.TID 0000.0001) %MON seaice_heff_del2             =   3.7925989061291E-03
(PID.TID 0000.0001) %MON seaice_hsnow_max             =   8.2075480050698E+00
(PID.TID 0000.0001) %MON seaice_hsnow_min             =   0.0000000000000E+00
(PID.TID 0000.0001) %MON seaice_hsnow_mean            =   2.3846096701325E-02
(PID.TID 0000.0001) %MON seaice_hsnow_sd              =   1.5561947996578E-01
(PID.TID 0000.0001) %MON seaice_hsnow_del2            =   1.2307207673786E-03
(PID.TID 0000.0001) // =======================================================
(PID.TID 0000.0001) // End MONITOR SEAICE statistics
(PID.TID 0000.0001) // =======================================================
 Computing Diagnostic #     86  oceQnet      Counter:       4   Parms: SM      U1      
 Computing Diagnostic #     87  oceQsw       Counter:       4   Parms: SM      U1      
 Computing Diagnostic #     84  oceFWflx     Counter:       4   Parms: SM      U1      
 Computing Diagnostic #     85  oceSflux     Counter:       4   Parms: SM      U1      
 Computing Diagnostic #     80  oceTAUX      Counter:       4   Parms: UU      U1      
           Vector  Mate for  oceTAUX      Diagnostic #     81  oceTAUY  exists 
 Computing Diagnostic #     81  oceTAUY      Counter:       4   Parms: VV      U1      
           Vector  Mate for  oceTAUY      Diagnostic #     80  oceTAUX  exists 
 Computing Diagnostic #     26  THETA        Counter:       4   Parms: SMR     MR      
 Computing Diagnostic #     27  SALT         Counter:       4   Parms: SMR     MR      
 Computing Diagnostic #     30  UVEL         Counter:       4   Parms: UUR     MR      
           Vector  Mate for  UVEL         Diagnostic #     31  VVEL     exists 
 Computing Diagnostic #     31  VVEL         Counter:       4   Parms: VVR     MR      
           Vector  Mate for  VVEL         Diagnostic #     30  UVEL     exists 
 Computing Diagnostic #    214  SIarea       Counter:       4   Parms: SM      M1      
 Computing Diagnostic #    217  SIheff       Counter:       4   Parms: SM      M1      
 Computing Diagnostic #    219  SIhsnow      Counter:       4   Parms: SM      M1      
 Computing Diagnostic #     83  sIceLoad     Counter:       4   Parms: SM      U1      
 Computing Diagnostic #    223  SIuice       Counter:       4   Parms: UU      M1      
           Vector  Mate for  SIuice       Diagnostic #    224  SIvice   exists 
 Computing Diagnostic #    224  SIvice       Counter:       4   Parms: VV      M1      
           Vector  Mate for  SIvice       Diagnostic #    223  SIuice   exists 
 Computing Diagnostic #    225  SItaux       Counter:       4   Parms: UU      U1      
           Vector  Mate for  SItaux       Diagnostic #    226  SItauy   exists 
 Computing Diagnostic #    226  SItauy       Counter:       4   Parms: VV      U1      
           Vector  Mate for  SItauy       Diagnostic #    225  SItaux   exists 
 Computing Diagnostic #    285  SIareaN      Counter:       4   Parms: SM      MX      
 Computing Diagnostic #    284  SIheffN      Counter:       4   Parms: SM      MX      
 Computing Diagnostic #    286  SIhsnowN     Counter:       4   Parms: SM      MX      
 Compute Stats, Diag. #    214  SIarea    vol(   0 ): 3.580E+14  Parms: SM      M1      
 Compute Stats, Diag. #    217  SIheff    vol(   0 ): 3.580E+14  Parms: SM      M1      
 Compute Stats, Diag. #    219  SIhsnow   vol(   0 ): 3.580E+14  Parms: SM      M1      
 Compute Stats, Diag. #     83  sIceLoad  vol(   0 ): 3.580E+14  Parms: SM      U1      
 Compute Stats, Diag. #    223  SIuice    vol(   0 ): 3.513E+14  Parms: UU      M1      
 Compute Stats, Diag. #    224  SIvice    vol(   0 ): 3.508E+14  Parms: VV      M1      
 Compute Stats, Diag. #    225  SItaux    vol(   0 ): 3.513E+14  Parms: UU      U1      
 Compute Stats, Diag. #    226  SItauy    vol(   0 ): 3.508E+14  Parms: VV      U1      
 cg2d: Sum(rhs),rhsMax =  -6.37631540800806E+01  3.04357035863277E-01
 Compute Stats, Diag. #    214  SIarea    vol(   0 ): 3.580E+14  Parms: SM      M1      
 Compute Stats, Diag. #    217  SIheff    vol(   0 ): 3.580E+14  Parms: SM      M1      
 Compute Stats, Diag. #    219  SIhsnow   vol(   0 ): 3.580E+14  Parms: SM      M1      
 Compute Stats, Diag. #     83  sIceLoad  vol(   0 ): 3.580E+14  Parms: SM      U1      
 Compute Stats, Diag. #    223  SIuice    vol(   0 ): 3.513E+14  Parms: UU      M1      
 Compute Stats, Diag. #    224  SIvice    vol(   0 ): 3.508E+14  Parms: VV      M1      
 Compute Stats, Diag. #    225  SItaux    vol(   0 ): 3.513E+14  Parms: UU      U1      
 Compute Stats, Diag. #    226  SItauy    vol(   0 ): 3.508E+14  Parms: VV      U1      
 cg2d: Sum(rhs),rhsMax =  -6.38247687663224E+01  3.04328462595435E-01
 Compute Stats, Diag. #    214  SIarea    vol(   0 ): 3.580E+14  Parms: SM      M1      
 Compute Stats, Diag. #    217  SIheff    vol(   0 ): 3.580E+14  Parms: SM      M1      
 Compute Stats, Diag. #    219  SIhsnow   vol(   0 ): 3.580E+14  Parms: SM      M1      
 Compute Stats, Diag. #     83  sIceLoad  vol(   0 ): 3.580E+14  Parms: SM      U1      
 Compute Stats, Diag. #    223  SIuice    vol(   0 ): 3.513E+14  Parms: UU      M1      
 Compute Stats, Diag. #    224  SIvice    vol(   0 ): 3.508E+14  Parms: VV      M1      
 Compute Stats, Diag. #    225  SItaux    vol(   0 ): 3.513E+14  Parms: UU      U1      
 Compute Stats, Diag. #    226  SItauy    vol(   0 ): 3.508E+14  Parms: VV      U1      
 cg2d: Sum(rhs),rhsMax =  -6.38899655876748E+01  3.04298728214897E-01
 Compute Stats, Diag. #    214  SIarea    vol(   0 ): 3.580E+14  Parms: SM      M1      
 Compute Stats, Diag. #    217  SIheff    vol(   0 ): 3.580E+14  Parms: SM      M1      
 Compute Stats, Diag. #    219  SIhsnow   vol(   0 ): 3.580E+14  Parms: SM      M1      
 Compute Stats, Diag. #     83  sIceLoad  vol(   0 ): 3.580E+14  Parms: SM      U1      
 Compute Stats, Diag. #    223  SIuice    vol(   0 ): 3.513E+14  Parms: UU      M1      
 Compute Stats, Diag. #    224  SIvice    vol(   0 ): 3.508E+14  Parms: VV      M1      
 Compute Stats, Diag. #    225  SItaux    vol(   0 ): 3.513E+14  Parms: UU      U1      
 Compute Stats, Diag. #    226  SItauy    vol(   0 ): 3.508E+14  Parms: VV      U1      
 cg2d: Sum(rhs),rhsMax =  -6.39639680331619E+01  3.04267854000387E-01
 Computing Diagnostic #     86  oceQnet      Counter:       4   Parms: SM      U1      
 Computing Diagnostic #     87  oceQsw       Counter:       4   Parms: SM      U1      
 Computing Diagnostic #     84  oceFWflx     Counter:       4   Parms: SM      U1      
 Computing Diagnostic #     85  oceSflux     Counter:       4   Parms: SM      U1      
 Computing Diagnostic #     80  oceTAUX      Counter:       4   Parms: UU      U1      
           Vector  Mate for  oceTAUX      Diagnostic #     81  oceTAUY  exists 
 Computing Diagnostic #     81  oceTAUY      Counter:       4   Parms: VV      U1      
           Vector  Mate for  oceTAUY      Diagnostic #     80  oceTAUX  exists 
 Computing Diagnostic #     26  THETA        Counter:       4   Parms: SMR     MR      
 Computing Diagnostic #     27  SALT         Counter:       4   Parms: SMR     MR      
 Computing Diagnostic #     30  UVEL         Counter:       4   Parms: UUR     MR      
           Vector  Mate for  UVEL         Diagnostic #     31  VVEL     exists 
 Computing Diagnostic #     31  VVEL         Counter:       4   Parms: VVR     MR      
           Vector  Mate for  VVEL         Diagnostic #     30  UVEL     exists 
 Computing Diagnostic #    214  SIarea       Counter:       4   Parms: SM      M1      
 Computing Diagnostic #    217  SIheff       Counter:       4   Parms: SM      M1      
 Computing Diagnostic #    219  SIhsnow      Counter:       4   Parms: SM      M1      
 Computing Diagnostic #     83  sIceLoad     Counter:       4   Parms: SM      U1      
 Computing Diagnostic #    223  SIuice       Counter:       4   Parms: UU      M1      
           Vector  Mate for  SIuice       Diagnostic #    224  SIvice   exists 
 Computing Diagnostic #    224  SIvice       Counter:       4   Parms: VV      M1      
           Vector  Mate for  SIvice       Diagnostic #    223  SIuice   exists 
 Computing Diagnostic #    225  SItaux       Counter:       4   Parms: UU      U1      
           Vector  Mate for  SItaux       Diagnostic #    226  SItauy   exists 
 Computing Diagnostic #    226  SItauy       Counter:       4   Parms: VV      U1      
           Vector  Mate for  SItauy       Diagnostic #    225  SItaux   exists 
 Computing Diagnostic #    285  SIareaN      Counter:       4   Parms: SM      MX      
 Computing Diagnostic #    284  SIheffN      Counter:       4   Parms: SM      MX      
 Computing Diagnostic #    286  SIhsnowN     Counter:       4   Parms: SM      MX      
 Compute Stats, Diag. #    214  SIarea    vol(   0 ): 3.580E+14  Parms: SM      M1      
 Compute Stats, Diag. #    217  SIheff    vol(   0 ): 3.580E+14  Parms: SM      M1      
 Compute Stats, Diag. #    219  SIhsnow   vol(   0 ): 3.580E+14  Parms: SM      M1      
 Compute Stats, Diag. #     83  sIceLoad  vol(   0 ): 3.580E+14  Parms: SM      U1      
 Compute Stats, Diag. #    223  SIuice    vol(   0 ): 3.513E+14  Parms: UU      M1      
 Compute Stats, Diag. #    224  SIvice    vol(   0 ): 3.508E+14  Parms: VV      M1      
 Compute Stats, Diag. #    225  SItaux    vol(   0 ): 3.513E+14  Parms: UU      U1      
 Compute Stats, Diag. #    226  SItauy    vol(   0 ): 3.508E+14  Parms: VV      U1      
 cg2d: Sum(rhs),rhsMax =  -6.40368764211000E+01  3.04235457122412E-01
 Compute Stats, Diag. #    214  SIarea    vol(   0 ): 3.580E+14  Parms: SM      M1      
 Compute Stats, Diag. #    217  SIheff    vol(   0 ): 3.580E+14  Parms: SM      M1      
 Compute Stats, Diag. #    219  SIhsnow   vol(   0 ): 3.580E+14  Parms: SM      M1      
 Compute Stats, Diag. #     83  sIceLoad  vol(   0 ): 3.580E+14  Parms: SM      U1      
 Compute Stats, Diag. #    223  SIuice    vol(   0 ): 3.513E+14  Parms: UU      M1      
 Compute Stats, Diag. #    224  SIvice    vol(   0 ): 3.508E+14  Parms: VV      M1      
 Compute Stats, Diag. #    225  SItaux    vol(   0 ): 3.513E+14  Parms: UU      U1      
 Compute Stats, Diag. #    226  SItauy    vol(   0 ): 3.508E+14  Parms: VV      U1      
 cg2d: Sum(rhs),rhsMax =  -6.41148339896700E+01  3.04201363609521E-01
 Compute Stats, Diag. #    214  SIarea    vol(   0 ): 3.580E+14  Parms: SM      M1      
 Compute Stats, Diag. #    217  SIheff    vol(   0 ): 3.580E+14  Parms: SM      M1      
 Compute Stats, Diag. #    219  SIhsnow   vol(   0 ): 3.580E+14  Parms: SM      M1      
 Compute Stats, Diag. #     83  sIceLoad  vol(   0 ): 3.580E+14  Parms: SM      U1      
 Compute Stats, Diag. #    223  SIuice    vol(   0 ): 3.513E+14  Parms: UU      M1      
 Compute Stats, Diag. #    224  SIvice    vol(   0 ): 3.508E+14  Parms: VV      M1      
 Compute Stats, Diag. #    225  SItaux    vol(   0 ): 3.513E+14  Parms: UU      U1      
 Compute Stats, Diag. #    226  SItauy    vol(   0 ): 3.508E+14  Parms: VV      U1      
 cg2d: Sum(rhs),rhsMax =  -6.41932666277483E+01  3.04165529763337E-01
 Compute Stats, Diag. #    214  SIarea    vol(   0 ): 3.580E+14  Parms: SM      M1      
 Compute Stats, Diag. #    217  SIheff    vol(   0 ): 3.580E+14  Parms: SM      M1      
 Compute Stats, Diag. #    219  SIhsnow   vol(   0 ): 3.580E+14  Parms: SM      M1      
 Compute Stats, Diag. #     83  sIceLoad  vol(   0 ): 3.580E+14  Parms: SM      U1      
 Compute Stats, Diag. #    223  SIuice    vol(   0 ): 3.513E+14  Parms: UU      M1      
 Compute Stats, Diag. #    224  SIvice    vol(   0 ): 3.508E+14  Parms: VV      M1      
 Compute Stats, Diag. #    225  SItaux    vol(   0 ): 3.513E+14  Parms: UU      U1      
 Compute Stats, Diag. #    226  SItauy    vol(   0 ): 3.508E+14  Parms: VV      U1      
 cg2d: Sum(rhs),rhsMax =  -6.42812770867687E+01  3.04127227269256E-01
(PID.TID 0000.0001)      cg2d_init_res =   3.99041636447494E-02
(PID.TID 0000.0001)      cg2d_iters(min,last) =      -1      24
(PID.TID 0000.0001)      cg2d_last_res =   2.18087740914755E-05
(PID.TID 0000.0001) // =======================================================
(PID.TID 0000.0001) // Begin MONITOR dynamic field statistics
(PID.TID 0000.0001) // =======================================================
(PID.TID 0000.0001) %MON time_tsnumber                =                  1424
(PID.TID 0000.0001) %MON time_secondsf                =   1.2816000000000E+06
(PID.TID 0000.0001) %MON dynstat_eta_max              =   1.0200659943628E+00
(PID.TID 0000.0001) %MON dynstat_eta_min              =  -1.9002409054732E+00
(PID.TID 0000.0001) %MON dynstat_eta_mean             =   2.0334220950315E-03
(PID.TID 0000.0001) %MON dynstat_eta_sd               =   6.2946871972816E-01
(PID.TID 0000.0001) %MON dynstat_eta_del2             =   4.9092360653571E-05
(PID.TID 0000.0001) %MON dynstat_uvel_max             =   6.1946914472453E-01
(PID.TID 0000.0001) %MON dynstat_uvel_min             =  -1.0617358911794E+00
(PID.TID 0000.0001) %MON dynstat_uvel_mean            =   1.3279121914851E-03
(PID.TID 0000.0001) %MON dynstat_uvel_sd              =   1.8097808576331E-02
(PID.TID 0000.0001) %MON dynstat_uvel_del2            =   7.1820117332050E-06
(PID.TID 0000.0001) %MON dynstat_vvel_max             =   6.8670899205814E-01
(PID.TID 0000.0001) %MON dynstat_vvel_min             =  -1.2147868735633E+00
(PID.TID 0000.0001) %MON dynstat_vvel_mean            =   1.0299172487884E-03
(PID.TID 0000.0001) %MON dynstat_vvel_sd              =   1.9646588975387E-02
(PID.TID 0000.0001) %MON dynstat_vvel_del2            =   7.3507181563231E-06
(PID.TID 0000.0001) %MON dynstat_wvel_max             =   4.4014573469440E-04
(PID.TID 0000.0001) %MON dynstat_wvel_min             =  -7.7855627155268E-04
(PID.TID 0000.0001) %MON dynstat_wvel_mean            =  -3.5251689525466E-09
(PID.TID 0000.0001) %MON dynstat_wvel_sd              =   1.5440909409987E-05
(PID.TID 0000.0001) %MON dynstat_wvel_del2            =   1.5372105566112E-08
(PID.TID 0000.0001) %MON dynstat_theta_max            =   3.1077971130696E+01
(PID.TID 0000.0001) %MON dynstat_theta_min            =  -2.0392737140085E+00
(PID.TID 0000.0001) %MON dynstat_theta_mean           =   3.5898819666994E+00
(PID.TID 0000.0001) %MON dynstat_theta_sd             =   4.4367223974603E+00
(PID.TID 0000.0001) %MON dynstat_theta_del2           =   8.8760171092957E-05
(PID.TID 0000.0001) %MON dynstat_salt_max             =   4.0711557853382E+01
(PID.TID 0000.0001) %MON dynstat_salt_min             =   7.5731872005547E+00
(PID.TID 0000.0001) %MON dynstat_salt_mean            =   3.4725553430539E+01
(PID.TID 0000.0001) %MON dynstat_salt_sd              =   3.7720457260080E-01
(PID.TID 0000.0001) %MON dynstat_salt_del2            =   3.7311919004298E-05
(PID.TID 0000.0001) %MON dynstat_sst_max              =   3.1077971130696E+01
(PID.TID 0000.0001) %MON dynstat_sst_min              =  -1.8106906862207E+00
(PID.TID 0000.0001) %MON dynstat_sst_mean             =   1.8418188275626E+01
(PID.TID 0000.0001) %MON dynstat_sst_sd               =   1.0335428137593E+01
(PID.TID 0000.0001) %MON dynstat_sst_del2             =   7.8612678070406E-04
(PID.TID 0000.0001) %MON dynstat_sss_max              =   3.9097799061500E+01
(PID.TID 0000.0001) %MON dynstat_sss_min              =   7.5731872005547E+00
(PID.TID 0000.0001) %MON dynstat_sss_mean             =   3.4702465949266E+01
(PID.TID 0000.0001) %MON dynstat_sss_sd               =   1.1932357557930E+00
(PID.TID 0000.0001) %MON dynstat_sss_del2             =   1.1037376453155E-03
(PID.TID 0000.0001) %MON forcing_qnet_max             =   1.3273029785156E+03
(PID.TID 0000.0001) %MON forcing_qnet_min             =  -7.2047709266810E+02
(PID.TID 0000.0001) %MON forcing_qnet_mean            =   5.1510924705488E+00
(PID.TID 0000.0001) %MON forcing_qnet_sd              =   2.0739080404981E+02
(PID.TID 0000.0001) %MON forcing_qnet_del2            =   3.1420104428354E-01
(PID.TID 0000.0001) %MON forcing_qsw_max              =   0.0000000000000E+00
(PID.TID 0000.0001) %MON forcing_qsw_min              =  -1.0932131604132E+02
(PID.TID 0000.0001) %MON forcing_qsw_mean             =  -1.8435658971613E+01
(PID.TID 0000.0001) %MON forcing_qsw_sd               =   2.8057058916680E+01
(PID.TID 0000.0001) %MON forcing_qsw_del2             =   2.1302704905856E-02
(PID.TID 0000.0001) %MON forcing_empmr_max            =   7.4096681782976E-04
(PID.TID 0000.0001) %MON forcing_empmr_min            =  -4.6956203877926E-02
(PID.TID 0000.0001) %MON forcing_empmr_mean           =  -3.1830993454171E-06
(PID.TID 0000.0001) %MON forcing_empmr_sd             =   2.4238133140384E-04
(PID.TID 0000.0001) %MON forcing_empmr_del2           =   2.4165332505873E-06
(PID.TID 0000.0001) %MON forcing_fu_max               =   1.1720252037048E+00
(PID.TID 0000.0001) %MON forcing_fu_min               =  -8.7971171736717E-01
(PID.TID 0000.0001) %MON forcing_fu_mean              =   7.2933734481096E-03
(PID.TID 0000.0001) %MON forcing_fu_sd                =   1.3106732529303E-01
(PID.TID 0000.0001) %MON forcing_fu_del2              =   1.5800106917731E-04
(PID.TID 0000.0001) %MON forcing_fv_max               =   1.0040159225464E+00
(PID.TID 0000.0001) %MON forcing_fv_min               =  -9.4846096634865E-01
(PID.TID 0000.0001) %MON forcing_fv_mean              =  -4.4136440986452E-03
(PID.TID 0000.0001) %MON forcing_fv_sd                =   1.1517232496913E-01
(PID.TID 0000.0001) %MON forcing_fv_del2              =   1.6315031815381E-04
(PID.TID 0000.0001) %MON trAdv_CFL_u_max              =   1.4299175556451E-02
(PID.TID 0000.0001) %MON trAdv_CFL_v_max              =   1.4135355370285E-02
(PID.TID 0000.0001) %MON trAdv_CFL_w_max              =   2.2866010470721E-02
(PID.TID 0000.0001) %MON advcfl_uvel_max              =   1.2573458069721E-02
(PID.TID 0000.0001) %MON advcfl_vvel_max              =   1.2431229753233E-02
(PID.TID 0000.0001) %MON advcfl_wvel_max              =   2.0726855626460E-02
(PID.TID 0000.0001) %MON advcfl_W_hf_max              =   2.1739909712333E-02
(PID.TID 0000.0001) %MON pe_b_mean                    =   5.2120776911831E-04
(PID.TID 0000.0001) %MON ke_max                       =   8.2121725775404E-01
(PID.TID 0000.0001) %MON ke_mean                      =   3.4541803248837E-04
(PID.TID 0000.0001) %MON ke_vol                       =   1.3349986039359E+18
(PID.TID 0000.0001) %MON vort_r_min                   =  -1.3655687728196E-05
(PID.TID 0000.0001) %MON vort_r_max                   =   1.5796794980690E-05
(PID.TID 0000.0001) %MON vort_a_mean                  =  -1.9727864647440E-05
(PID.TID 0000.0001) %MON vort_a_sd                    =   7.4542979623573E-05
(PID.TID 0000.0001) %MON vort_p_mean                  =  -2.1760522220715E-05
(PID.TID 0000.0001) %MON vort_p_sd                    =   9.7246539391051E-05
(PID.TID 0000.0001) %MON surfExpan_theta_mean         =   5.7730808086447E-09
(PID.TID 0000.0001) %MON surfExpan_salt_mean          =   3.1633276922393E-08
(PID.TID 0000.0001) // =======================================================
(PID.TID 0000.0001) // End MONITOR dynamic field statistics
(PID.TID 0000.0001) // =======================================================
(PID.TID 0000.0001) // =======================================================
(PID.TID 0000.0001) // Begin MONITOR SEAICE statistics
(PID.TID 0000.0001) // =======================================================
(PID.TID 0000.0001) %MON seaice_tsnumber              =                  1424
(PID.TID 0000.0001) %MON seaice_time_sec              =   1.2816000000000E+06
(PID.TID 0000.0001) %MON seaice_uice_max              =   4.0000000000000E-01
(PID.TID 0000.0001) %MON seaice_uice_min              =  -4.0000000000000E-01
(PID.TID 0000.0001) %MON seaice_uice_mean             =  -8.3054598624025E-03
(PID.TID 0000.0001) %MON seaice_uice_sd               =   1.9802383574176E-01
(PID.TID 0000.0001) %MON seaice_uice_del2             =   2.2931571122150E-04
(PID.TID 0000.0001) %MON seaice_vice_max              =   4.0000000000000E-01
(PID.TID 0000.0001) %MON seaice_vice_min              =  -4.0000000000000E-01
(PID.TID 0000.0001) %MON seaice_vice_mean             =  -2.1960776359499E-02
(PID.TID 0000.0001) %MON seaice_vice_sd               =   2.1302038025672E-01
(PID.TID 0000.0001) %MON seaice_vice_del2             =   2.3932563818061E-04
(PID.TID 0000.0001) %MON seaice_area_max              =   9.9999999679858E-01
(PID.TID 0000.0001) %MON seaice_area_min              =   0.0000000000000E+00
(PID.TID 0000.0001) %MON seaice_area_mean             =   6.3759494752027E-02
(PID.TID 0000.0001) %MON seaice_area_sd               =   2.2621756859897E-01
(PID.TID 0000.0001) %MON seaice_area_del2             =   3.6013759927820E-04
(PID.TID 0000.0001) %MON seaice_heff_max              =   2.4847767524072E+01
(PID.TID 0000.0001) %MON seaice_heff_min              =   0.0000000000000E+00
(PID.TID 0000.0001) %MON seaice_heff_mean             =   2.1075087038037E-01
(PID.TID 0000.0001) %MON seaice_heff_sd               =   1.0650868572283E+00
(PID.TID 0000.0001) %MON seaice_heff_del2             =   3.7920515434170E-03
(PID.TID 0000.0001) %MON seaice_hsnow_max             =   8.2072695969255E+00
(PID.TID 0000.0001) %MON seaice_hsnow_min             =   0.0000000000000E+00
(PID.TID 0000.0001) %MON seaice_hsnow_mean            =   2.3843272628413E-02
(PID.TID 0000.0001) %MON seaice_hsnow_sd              =   1.5561103374012E-01
(PID.TID 0000.0001) %MON seaice_hsnow_del2            =   1.2306433018279E-03
(PID.TID 0000.0001) // =======================================================
(PID.TID 0000.0001) // End MONITOR SEAICE statistics
(PID.TID 0000.0001) // =======================================================
 Computing Diagnostic #     86  oceQnet      Counter:       4   Parms: SM      U1      
 Computing Diagnostic #     87  oceQsw       Counter:       4   Parms: SM      U1      
 Computing Diagnostic #     84  oceFWflx     Counter:       4   Parms: SM      U1      
 Computing Diagnostic #     85  oceSflux     Counter:       4   Parms: SM      U1      
 Computing Diagnostic #     80  oceTAUX      Counter:       4   Parms: UU      U1      
           Vector  Mate for  oceTAUX      Diagnostic #     81  oceTAUY  exists 
 Computing Diagnostic #     81  oceTAUY      Counter:       4   Parms: VV      U1      
           Vector  Mate for  oceTAUY      Diagnostic #     80  oceTAUX  exists 
 Computing Diagnostic #     26  THETA        Counter:       4   Parms: SMR     MR      
 Computing Diagnostic #     27  SALT         Counter:       4   Parms: SMR     MR      
 Computing Diagnostic #     30  UVEL         Counter:       4   Parms: UUR     MR      
           Vector  Mate for  UVEL         Diagnostic #     31  VVEL     exists 
 Computing Diagnostic #     31  VVEL         Counter:       4   Parms: VVR     MR      
           Vector  Mate for  VVEL         Diagnostic #     30  UVEL     exists 
 Computing Diagnostic #    214  SIarea       Counter:       4   Parms: SM      M1      
 Computing Diagnostic #    217  SIheff       Counter:       4   Parms: SM      M1      
 Computing Diagnostic #    219  SIhsnow      Counter:       4   Parms: SM      M1      
 Computing Diagnostic #     83  sIceLoad     Counter:       4   Parms: SM      U1      
 Computing Diagnostic #    223  SIuice       Counter:       4   Parms: UU      M1      
           Vector  Mate for  SIuice       Diagnostic #    224  SIvice   exists 
 Computing Diagnostic #    224  SIvice       Counter:       4   Parms: VV      M1      
           Vector  Mate for  SIvice       Diagnostic #    223  SIuice   exists 
 Computing Diagnostic #    225  SItaux       Counter:       4   Parms: UU      U1      
           Vector  Mate for  SItaux       Diagnostic #    226  SItauy   exists 
 Computing Diagnostic #    226  SItauy       Counter:       4   Parms: VV      U1      
           Vector  Mate for  SItauy       Diagnostic #    225  SItaux   exists 
 Computing Diagnostic #    285  SIareaN      Counter:       4   Parms: SM      MX      
 Computing Diagnostic #    284  SIheffN      Counter:       4   Parms: SM      MX      
 Computing Diagnostic #    286  SIhsnowN     Counter:       4   Parms: SM      MX      
 Compute Stats, Diag. #    214  SIarea    vol(   0 ): 3.580E+14  Parms: SM      M1      
 Compute Stats, Diag. #    217  SIheff    vol(   0 ): 3.580E+14  Parms: SM      M1      
 Compute Stats, Diag. #    219  SIhsnow   vol(   0 ): 3.580E+14  Parms: SM      M1      
 Compute Stats, Diag. #     83  sIceLoad  vol(   0 ): 3.580E+14  Parms: SM      U1      
 Compute Stats, Diag. #    223  SIuice    vol(   0 ): 3.513E+14  Parms: UU      M1      
 Compute Stats, Diag. #    224  SIvice    vol(   0 ): 3.508E+14  Parms: VV      M1      
 Compute Stats, Diag. #    225  SItaux    vol(   0 ): 3.513E+14  Parms: UU      U1      
 Compute Stats, Diag. #    226  SItauy    vol(   0 ): 3.508E+14  Parms: VV      U1      
 cg2d: Sum(rhs),rhsMax =  -6.43785325731744E+01  3.04085786226939E-01
 Compute Stats, Diag. #    214  SIarea    vol(   0 ): 3.580E+14  Parms: SM      M1      
 Compute Stats, Diag. #    217  SIheff    vol(   0 ): 3.580E+14  Parms: SM      M1      
 Compute Stats, Diag. #    219  SIhsnow   vol(   0 ): 3.580E+14  Parms: SM      M1      
 Compute Stats, Diag. #     83  sIceLoad  vol(   0 ): 3.580E+14  Parms: SM      U1      
 Compute Stats, Diag. #    223  SIuice    vol(   0 ): 3.513E+14  Parms: UU      M1      
 Compute Stats, Diag. #    224  SIvice    vol(   0 ): 3.508E+14  Parms: VV      M1      
 Compute Stats, Diag. #    225  SItaux    vol(   0 ): 3.513E+14  Parms: UU      U1      
 Compute Stats, Diag. #    226  SItauy    vol(   0 ): 3.508E+14  Parms: VV      U1      
 cg2d: Sum(rhs),rhsMax =  -6.44835504812652E+01  3.04040475605075E-01
 Compute Stats, Diag. #    214  SIarea    vol(   0 ): 3.580E+14  Parms: SM      M1      
 Compute Stats, Diag. #    217  SIheff    vol(   0 ): 3.580E+14  Parms: SM      M1      
 Compute Stats, Diag. #    219  SIhsnow   vol(   0 ): 3.580E+14  Parms: SM      M1      
 Compute Stats, Diag. #     83  sIceLoad  vol(   0 ): 3.580E+14  Parms: SM      U1      
 Compute Stats, Diag. #    223  SIuice    vol(   0 ): 3.513E+14  Parms: UU      M1      
 Compute Stats, Diag. #    224  SIvice    vol(   0 ): 3.508E+14  Parms: VV      M1      
 Compute Stats, Diag. #    225  SItaux    vol(   0 ): 3.513E+14  Parms: UU      U1      
 Compute Stats, Diag. #    226  SItauy    vol(   0 ): 3.508E+14  Parms: VV      U1      
 cg2d: Sum(rhs),rhsMax =  -6.45824618473185E+01  3.03991021356247E-01
 Compute Stats, Diag. #    214  SIarea    vol(   0 ): 3.580E+14  Parms: SM      M1      
 Compute Stats, Diag. #    217  SIheff    vol(   0 ): 3.580E+14  Parms: SM      M1      
 Compute Stats, Diag. #    219  SIhsnow   vol(   0 ): 3.580E+14  Parms: SM      M1      
 Compute Stats, Diag. #     83  sIceLoad  vol(   0 ): 3.580E+14  Parms: SM      U1      
 Compute Stats, Diag. #    223  SIuice    vol(   0 ): 3.513E+14  Parms: UU      M1      
 Compute Stats, Diag. #    224  SIvice    vol(   0 ): 3.508E+14  Parms: VV      M1      
 Compute Stats, Diag. #    225  SItaux    vol(   0 ): 3.513E+14  Parms: UU      U1      
 Compute Stats, Diag. #    226  SItauy    vol(   0 ): 3.508E+14  Parms: VV      U1      
 cg2d: Sum(rhs),rhsMax =  -6.46873309098519E+01  3.03936349407292E-01
 Computing Diagnostic #     86  oceQnet      Counter:       4   Parms: SM      U1      
 Computing Diagnostic #     87  oceQsw       Counter:       4   Parms: SM      U1      
 Computing Diagnostic #     84  oceFWflx     Counter:       4   Parms: SM      U1      
 Computing Diagnostic #     85  oceSflux     Counter:       4   Parms: SM      U1      
 Computing Diagnostic #     80  oceTAUX      Counter:       4   Parms: UU      U1      
           Vector  Mate for  oceTAUX      Diagnostic #     81  oceTAUY  exists 
 Computing Diagnostic #     81  oceTAUY      Counter:       4   Parms: VV      U1      
           Vector  Mate for  oceTAUY      Diagnostic #     80  oceTAUX  exists 
 Computing Diagnostic #     26  THETA        Counter:       4   Parms: SMR     MR      
 Computing Diagnostic #     27  SALT         Counter:       4   Parms: SMR     MR      
 Computing Diagnostic #     30  UVEL         Counter:       4   Parms: UUR     MR      
           Vector  Mate for  UVEL         Diagnostic #     31  VVEL     exists 
 Computing Diagnostic #     31  VVEL         Counter:       4   Parms: VVR     MR      
           Vector  Mate for  VVEL         Diagnostic #     30  UVEL     exists 
 Computing Diagnostic #    214  SIarea       Counter:       4   Parms: SM      M1      
 Computing Diagnostic #    217  SIheff       Counter:       4   Parms: SM      M1      
 Computing Diagnostic #    219  SIhsnow      Counter:       4   Parms: SM      M1      
 Computing Diagnostic #     83  sIceLoad     Counter:       4   Parms: SM      U1      
 Computing Diagnostic #    223  SIuice       Counter:       4   Parms: UU      M1      
           Vector  Mate for  SIuice       Diagnostic #    224  SIvice   exists 
 Computing Diagnostic #    224  SIvice       Counter:       4   Parms: VV      M1      
           Vector  Mate for  SIvice       Diagnostic #    223  SIuice   exists 
 Computing Diagnostic #    225  SItaux       Counter:       4   Parms: UU      U1      
           Vector  Mate for  SItaux       Diagnostic #    226  SItauy   exists 
 Computing Diagnostic #    226  SItauy       Counter:       4   Parms: VV      U1      
           Vector  Mate for  SItauy       Diagnostic #    225  SItaux   exists 
 Computing Diagnostic #    285  SIareaN      Counter:       4   Parms: SM      MX      
 Computing Diagnostic #    284  SIheffN      Counter:       4   Parms: SM      MX      
 Computing Diagnostic #    286  SIhsnowN     Counter:       4   Parms: SM      MX      
 Compute Stats, Diag. #    214  SIarea    vol(   0 ): 3.580E+14  Parms: SM      M1      
 Compute Stats, Diag. #    217  SIheff    vol(   0 ): 3.580E+14  Parms: SM      M1      
 Compute Stats, Diag. #    219  SIhsnow   vol(   0 ): 3.580E+14  Parms: SM      M1      
 Compute Stats, Diag. #     83  sIceLoad  vol(   0 ): 3.580E+14  Parms: SM      U1      
 Compute Stats, Diag. #    223  SIuice    vol(   0 ): 3.513E+14  Parms: UU      M1      
 Compute Stats, Diag. #    224  SIvice    vol(   0 ): 3.508E+14  Parms: VV      M1      
 Compute Stats, Diag. #    225  SItaux    vol(   0 ): 3.513E+14  Parms: UU      U1      
 Compute Stats, Diag. #    226  SItauy    vol(   0 ): 3.508E+14  Parms: VV      U1      
 cg2d: Sum(rhs),rhsMax =  -6.48052852131189E+01  3.03876005804441E-01
 Compute Stats, Diag. #    214  SIarea    vol(   0 ): 3.580E+14  Parms: SM      M1      
 Compute Stats, Diag. #    217  SIheff    vol(   0 ): 3.580E+14  Parms: SM      M1      
 Compute Stats, Diag. #    219  SIhsnow   vol(   0 ): 3.580E+14  Parms: SM      M1      
 Compute Stats, Diag. #     83  sIceLoad  vol(   0 ): 3.580E+14  Parms: SM      U1      
 Compute Stats, Diag. #    223  SIuice    vol(   0 ): 3.513E+14  Parms: UU      M1      
 Compute Stats, Diag. #    224  SIvice    vol(   0 ): 3.508E+14  Parms: VV      M1      
 Compute Stats, Diag. #    225  SItaux    vol(   0 ): 3.513E+14  Parms: UU      U1      
 Compute Stats, Diag. #    226  SItauy    vol(   0 ): 3.508E+14  Parms: VV      U1      
 cg2d: Sum(rhs),rhsMax =  -6.49164805141643E+01  3.03809538637775E-01
 Compute Stats, Diag. #    214  SIarea    vol(   0 ): 3.580E+14  Parms: SM      M1      
 Compute Stats, Diag. #    217  SIheff    vol(   0 ): 3.580E+14  Parms: SM      M1      
 Compute Stats, Diag. #    219  SIhsnow   vol(   0 ): 3.580E+14  Parms: SM      M1      
 Compute Stats, Diag. #     83  sIceLoad  vol(   0 ): 3.580E+14  Parms: SM      U1      
 Compute Stats, Diag. #    223  SIuice    vol(   0 ): 3.513E+14  Parms: UU      M1      
 Compute Stats, Diag. #    224  SIvice    vol(   0 ): 3.508E+14  Parms: VV      M1      
 Compute Stats, Diag. #    225  SItaux    vol(   0 ): 3.513E+14  Parms: UU      U1      
 Compute Stats, Diag. #    226  SItauy    vol(   0 ): 3.508E+14  Parms: VV      U1      
 cg2d: Sum(rhs),rhsMax =  -6.50263673394760E+01  3.03735749988643E-01
 Compute Stats, Diag. #    214  SIarea    vol(   0 ): 3.580E+14  Parms: SM      M1      
 Compute Stats, Diag. #    217  SIheff    vol(   0 ): 3.580E+14  Parms: SM      M1      
 Compute Stats, Diag. #    219  SIhsnow   vol(   0 ): 3.580E+14  Parms: SM      M1      
 Compute Stats, Diag. #     83  sIceLoad  vol(   0 ): 3.580E+14  Parms: SM      U1      
 Compute Stats, Diag. #    223  SIuice    vol(   0 ): 3.513E+14  Parms: UU      M1      
 Compute Stats, Diag. #    224  SIvice    vol(   0 ): 3.508E+14  Parms: VV      M1      
 Compute Stats, Diag. #    225  SItaux    vol(   0 ): 3.513E+14  Parms: UU      U1      
 Compute Stats, Diag. #    226  SItauy    vol(   0 ): 3.508E+14  Parms: VV      U1      
 cg2d: Sum(rhs),rhsMax =  -6.51224138646370E+01  3.03654271010267E-01
(PID.TID 0000.0001)      cg2d_init_res =   4.28909930504706E-02
(PID.TID 0000.0001)      cg2d_iters(min,last) =      -1      24
(PID.TID 0000.0001)      cg2d_last_res =   2.67094920918748E-05
(PID.TID 0000.0001) // =======================================================
(PID.TID 0000.0001) // Begin MONITOR dynamic field statistics
(PID.TID 0000.0001) // =======================================================
(PID.TID 0000.0001) %MON time_tsnumber                =                  1432
(PID.TID 0000.0001) %MON time_secondsf                =   1.2888000000000E+06
(PID.TID 0000.0001) %MON dynstat_eta_max              =   1.0192936328697E+00
(PID.TID 0000.0001) %MON dynstat_eta_min              =  -1.9015877812928E+00
(PID.TID 0000.0001) %MON dynstat_eta_mean             =   2.0600299377283E-03
(PID.TID 0000.0001) %MON dynstat_eta_sd               =   6.2930272494351E-01
(PID.TID 0000.0001) %MON dynstat_eta_del2             =   4.9067399412240E-05
(PID.TID 0000.0001) %MON dynstat_uvel_max             =   6.1572538925306E-01
(PID.TID 0000.0001) %MON dynstat_uvel_min             =  -1.0739843776992E+00
(PID.TID 0000.0001) %MON dynstat_uvel_mean            =   1.3237692010249E-03
(PID.TID 0000.0001) %MON dynstat_uvel_sd              =   1.8121706963974E-02
(PID.TID 0000.0001) %MON dynstat_uvel_del2            =   7.1591468770645E-06
(PID.TID 0000.0001) %MON dynstat_vvel_max             =   6.8351005622775E-01
(PID.TID 0000.0001) %MON dynstat_vvel_min             =  -1.2225586363901E+00
(PID.TID 0000.0001) %MON dynstat_vvel_mean            =   1.0264918074900E-03
(PID.TID 0000.0001) %MON dynstat_vvel_sd              =   1.9636483392441E-02
(PID.TID 0000.0001) %MON dynstat_vvel_del2            =   7.3299462270061E-06
(PID.TID 0000.0001) %MON dynstat_wvel_max             =   5.0040083716155E-04
(PID.TID 0000.0001) %MON dynstat_wvel_min             =  -7.7964453522371E-04
(PID.TID 0000.0001) %MON dynstat_wvel_mean            =  -3.3879417137154E-09
(PID.TID 0000.0001) %MON dynstat_wvel_sd              =   1.5504342503680E-05
(PID.TID 0000.0001) %MON dynstat_wvel_del2            =   1.5258056131590E-08
(PID.TID 0000.0001) %MON dynstat_theta_max            =   3.1075236522573E+01
(PID.TID 0000.0001) %MON dynstat_theta_min            =  -2.0392606329975E+00
(PID.TID 0000.0001) %MON dynstat_theta_mean           =   3.5898819462088E+00
(PID.TID 0000.0001) %MON dynstat_theta_sd             =   4.4367403671787E+00
(PID.TID 0000.0001) %MON dynstat_theta_del2           =   8.8729865058047E-05
(PID.TID 0000.0001) %MON dynstat_salt_max             =   4.0711558028998E+01
(PID.TID 0000.0001) %MON dynstat_salt_min             =   7.4302727642525E+00
(PID.TID 0000.0001) %MON dynstat_salt_mean            =   3.4725553177472E+01
(PID.TID 0000.0001) %MON dynstat_salt_sd              =   3.7720789751187E-01
(PID.TID 0000.0001) %MON dynstat_salt_del2            =   3.7300702102092E-05
(PID.TID 0000.0001) %MON dynstat_sst_max              =   3.1075236522573E+01
(PID.TID 0000.0001) %MON dynstat_sst_min              =  -1.8098120983232E+00
(PID.TID 0000.0001) %MON dynstat_sst_mean             =   1.8420074069704E+01
(PID.TID 0000.0001) %MON dynstat_sst_sd               =   1.0337201036579E+01
(PID.TID 0000.0001) %MON dynstat_sst_del2             =   7.8477619865827E-04
(PID.TID 0000.0001) %MON dynstat_sss_max              =   3.9097766301989E+01
(PID.TID 0000.0001) %MON dynstat_sss_min              =   7.4302727642525E+00
(PID.TID 0000.0001) %MON dynstat_sss_mean             =   3.4702496539929E+01
(PID.TID 0000.0001) %MON dynstat_sss_sd               =   1.1935886010405E+00
(PID.TID 0000.0001) %MON dynstat_sss_del2             =   1.1029946927577E-03
(PID.TID 0000.0001) %MON forcing_qnet_max             =   1.9655233154297E+03
(PID.TID 0000.0001) %MON forcing_qnet_min             =  -1.0168526000977E+03
(PID.TID 0000.0001) %MON forcing_qnet_mean            =  -4.5493700827934E+00
(PID.TID 0000.0001) %MON forcing_qnet_sd              =   2.0425556412409E+02
(PID.TID 0000.0001) %MON forcing_qnet_del2            =   3.3298190308969E-01
(PID.TID 0000.0001) %MON forcing_qsw_max              =   0.0000000000000E+00
(PID.TID 0000.0001) %MON forcing_qsw_min              =  -1.0810912388112E+02
(PID.TID 0000.0001) %MON forcing_qsw_mean             =  -1.9758726498075E+01
(PID.TID 0000.0001) %MON forcing_qsw_sd               =   2.8874289557981E+01
(PID.TID 0000.0001) %MON forcing_qsw_del2             =   2.0598423904587E-02
(PID.TID 0000.0001) %MON forcing_empmr_max            =   1.0706923203543E-03
(PID.TID 0000.0001) %MON forcing_empmr_min            =  -6.7237757146358E-02
(PID.TID 0000.0001) %MON forcing_empmr_mean           =  -3.4737420389806E-06
(PID.TID 0000.0001) %MON forcing_empmr_sd             =   3.2766430497276E-04
(PID.TID 0000.0001) %MON forcing_empmr_del2           =   3.3759613839697E-06
(PID.TID 0000.0001) %MON forcing_fu_max               =   1.1806697845459E+00
(PID.TID 0000.0001) %MON forcing_fu_min               =  -9.2949807643890E-01
(PID.TID 0000.0001) %MON forcing_fu_mean              =   8.0265444732206E-03
(PID.TID 0000.0001) %MON forcing_fu_sd                =   1.2985923787345E-01
(PID.TID 0000.0001) %MON forcing_fu_del2              =   1.5499585503544E-04
(PID.TID 0000.0001) %MON forcing_fv_max               =   1.0243907570839E+00
(PID.TID 0000.0001) %MON forcing_fv_min               =  -9.8659944534301E-01
(PID.TID 0000.0001) %MON forcing_fv_mean              =  -4.8740878751243E-03
(PID.TID 0000.0001) %MON forcing_fv_sd                =   1.1333352434295E-01
(PID.TID 0000.0001) %MON forcing_fv_del2              =   1.5865798220073E-04
(PID.TID 0000.0001) %MON trAdv_CFL_u_max              =   1.4345493531330E-02
(PID.TID 0000.0001) %MON trAdv_CFL_v_max              =   1.4342303303094E-02
(PID.TID 0000.0001) %MON trAdv_CFL_w_max              =   2.2933684345968E-02
(PID.TID 0000.0001) %MON advcfl_uvel_max              =   1.2619006463200E-02
(PID.TID 0000.0001) %MON advcfl_vvel_max              =   1.2425377917793E-02
(PID.TID 0000.0001) %MON advcfl_wvel_max              =   2.0524539219271E-02
(PID.TID 0000.0001) %MON advcfl_W_hf_max              =   2.1527846673119E-02
(PID.TID 0000.0001) %MON pe_b_mean                    =   5.2093305641263E-04
(PID.TID 0000.0001) %MON ke_max                       =   8.3346422727888E-01
(PID.TID 0000.0001) %MON ke_mean                      =   3.4563520641442E-04
(PID.TID 0000.0001) %MON ke_vol                       =   1.3349986133708E+18
(PID.TID 0000.0001) %MON vort_r_min                   =  -1.1821918116483E-05
(PID.TID 0000.0001) %MON vort_r_max                   =   1.5595352047022E-05
(PID.TID 0000.0001) %MON vort_a_mean                  =  -1.9727864647440E-05
(PID.TID 0000.0001) %MON vort_a_sd                    =   7.4542977093295E-05
(PID.TID 0000.0001) %MON vort_p_mean                  =  -2.1760522049207E-05
(PID.TID 0000.0001) %MON vort_p_sd                    =   9.7246579359269E-05
(PID.TID 0000.0001) %MON surfExpan_theta_mean         =   2.7257156225426E-08
(PID.TID 0000.0001) %MON surfExpan_salt_mean          =   4.4581662840174E-08
(PID.TID 0000.0001) // =======================================================
(PID.TID 0000.0001) // End MONITOR dynamic field statistics
(PID.TID 0000.0001) // =======================================================
(PID.TID 0000.0001) // =======================================================
(PID.TID 0000.0001) // Begin MONITOR SEAICE statistics
(PID.TID 0000.0001) // =======================================================
(PID.TID 0000.0001) %MON seaice_tsnumber              =                  1432
(PID.TID 0000.0001) %MON seaice_time_sec              =   1.2888000000000E+06
(PID.TID 0000.0001) %MON seaice_uice_max              =   4.0000000000000E-01
(PID.TID 0000.0001) %MON seaice_uice_min              =  -4.0000000000000E-01
(PID.TID 0000.0001) %MON seaice_uice_mean             =  -8.3054598624025E-03
(PID.TID 0000.0001) %MON seaice_uice_sd               =   1.9802383574176E-01
(PID.TID 0000.0001) %MON seaice_uice_del2             =   2.2931571122150E-04
(PID.TID 0000.0001) %MON seaice_vice_max              =   4.0000000000000E-01
(PID.TID 0000.0001) %MON seaice_vice_min              =  -4.0000000000000E-01
(PID.TID 0000.0001) %MON seaice_vice_mean             =  -2.1960776359499E-02
(PID.TID 0000.0001) %MON seaice_vice_sd               =   2.1302038025672E-01
(PID.TID 0000.0001) %MON seaice_vice_del2             =   2.3932563818061E-04
(PID.TID 0000.0001) %MON seaice_area_max              =   9.9999998573912E-01
(PID.TID 0000.0001) %MON seaice_area_min              =   0.0000000000000E+00
(PID.TID 0000.0001) %MON seaice_area_mean             =   6.3748761087692E-02
(PID.TID 0000.0001) %MON seaice_area_sd               =   2.2620633083312E-01
(PID.TID 0000.0001) %MON seaice_area_del2             =   3.6004146969355E-04
(PID.TID 0000.0001) %MON seaice_heff_max              =   2.4846729410114E+01
(PID.TID 0000.0001) %MON seaice_heff_min              =   0.0000000000000E+00
(PID.TID 0000.0001) %MON seaice_heff_mean             =   2.1073817247726E-01
(PID.TID 0000.0001) %MON seaice_heff_sd               =   1.0650807201604E+00
(PID.TID 0000.0001) %MON seaice_heff_del2             =   3.7915055939571E-03
(PID.TID 0000.0001) %MON seaice_hsnow_max             =   8.2069292318047E+00
(PID.TID 0000.0001) %MON seaice_hsnow_min             =   0.0000000000000E+00
(PID.TID 0000.0001) %MON seaice_hsnow_mean            =   2.3840076937273E-02
(PID.TID 0000.0001) %MON seaice_hsnow_sd              =   1.5560455590036E-01
(PID.TID 0000.0001) %MON seaice_hsnow_del2            =   1.2305821863493E-03
(PID.TID 0000.0001) // =======================================================
(PID.TID 0000.0001) // End MONITOR SEAICE statistics
(PID.TID 0000.0001) // =======================================================
 Computing Diagnostic #     86  oceQnet      Counter:       4   Parms: SM      U1      
 Computing Diagnostic #     87  oceQsw       Counter:       4   Parms: SM      U1      
 Computing Diagnostic #     84  oceFWflx     Counter:       4   Parms: SM      U1      
 Computing Diagnostic #     85  oceSflux     Counter:       4   Parms: SM      U1      
 Computing Diagnostic #     80  oceTAUX      Counter:       4   Parms: UU      U1      
           Vector  Mate for  oceTAUX      Diagnostic #     81  oceTAUY  exists 
 Computing Diagnostic #     81  oceTAUY      Counter:       4   Parms: VV      U1      
           Vector  Mate for  oceTAUY      Diagnostic #     80  oceTAUX  exists 
 Computing Diagnostic #     26  THETA        Counter:       4   Parms: SMR     MR      
 Computing Diagnostic #     27  SALT         Counter:       4   Parms: SMR     MR      
 Computing Diagnostic #     30  UVEL         Counter:       4   Parms: UUR     MR      
           Vector  Mate for  UVEL         Diagnostic #     31  VVEL     exists 
 Computing Diagnostic #     31  VVEL         Counter:       4   Parms: VVR     MR      
           Vector  Mate for  VVEL         Diagnostic #     30  UVEL     exists 
 Computing Diagnostic #    214  SIarea       Counter:       4   Parms: SM      M1      
 Computing Diagnostic #    217  SIheff       Counter:       4   Parms: SM      M1      
 Computing Diagnostic #    219  SIhsnow      Counter:       4   Parms: SM      M1      
 Computing Diagnostic #     83  sIceLoad     Counter:       4   Parms: SM      U1      
 Computing Diagnostic #    223  SIuice       Counter:       4   Parms: UU      M1      
           Vector  Mate for  SIuice       Diagnostic #    224  SIvice   exists 
 Computing Diagnostic #    224  SIvice       Counter:       4   Parms: VV      M1      
           Vector  Mate for  SIvice       Diagnostic #    223  SIuice   exists 
 Computing Diagnostic #    225  SItaux       Counter:       4   Parms: UU      U1      
           Vector  Mate for  SItaux       Diagnostic #    226  SItauy   exists 
 Computing Diagnostic #    226  SItauy       Counter:       4   Parms: VV      U1      
           Vector  Mate for  SItauy       Diagnostic #    225  SItaux   exists 
 Computing Diagnostic #    285  SIareaN      Counter:       4   Parms: SM      MX      
 Computing Diagnostic #    284  SIheffN      Counter:       4   Parms: SM      MX      
 Computing Diagnostic #    286  SIhsnowN     Counter:       4   Parms: SM      MX      
 Compute Stats, Diag. #    214  SIarea    vol(   0 ): 3.580E+14  Parms: SM      M1      
 Compute Stats, Diag. #    217  SIheff    vol(   0 ): 3.580E+14  Parms: SM      M1      
 Compute Stats, Diag. #    219  SIhsnow   vol(   0 ): 3.580E+14  Parms: SM      M1      
 Compute Stats, Diag. #     83  sIceLoad  vol(   0 ): 3.580E+14  Parms: SM      U1      
 Compute Stats, Diag. #    223  SIuice    vol(   0 ): 3.513E+14  Parms: UU      M1      
 Compute Stats, Diag. #    224  SIvice    vol(   0 ): 3.508E+14  Parms: VV      M1      
 Compute Stats, Diag. #    225  SItaux    vol(   0 ): 3.513E+14  Parms: UU      U1      
 Compute Stats, Diag. #    226  SItauy    vol(   0 ): 3.508E+14  Parms: VV      U1      
 cg2d: Sum(rhs),rhsMax =  -6.52040945398889E+01  3.03564707909124E-01
 Compute Stats, Diag. #    214  SIarea    vol(   0 ): 3.580E+14  Parms: SM      M1      
 Compute Stats, Diag. #    217  SIheff    vol(   0 ): 3.580E+14  Parms: SM      M1      
 Compute Stats, Diag. #    219  SIhsnow   vol(   0 ): 3.580E+14  Parms: SM      M1      
 Compute Stats, Diag. #     83  sIceLoad  vol(   0 ): 3.580E+14  Parms: SM      U1      
 Compute Stats, Diag. #    223  SIuice    vol(   0 ): 3.513E+14  Parms: UU      M1      
 Compute Stats, Diag. #    224  SIvice    vol(   0 ): 3.508E+14  Parms: VV      M1      
 Compute Stats, Diag. #    225  SItaux    vol(   0 ): 3.513E+14  Parms: UU      U1      
 Compute Stats, Diag. #    226  SItauy    vol(   0 ): 3.508E+14  Parms: VV      U1      
 cg2d: Sum(rhs),rhsMax =  -6.52942817572988E+01  3.03465817339144E-01
 Compute Stats, Diag. #    214  SIarea    vol(   0 ): 3.580E+14  Parms: SM      M1      
 Compute Stats, Diag. #    217  SIheff    vol(   0 ): 3.580E+14  Parms: SM      M1      
 Compute Stats, Diag. #    219  SIhsnow   vol(   0 ): 3.580E+14  Parms: SM      M1      
 Compute Stats, Diag. #     83  sIceLoad  vol(   0 ): 3.580E+14  Parms: SM      U1      
 Compute Stats, Diag. #    223  SIuice    vol(   0 ): 3.513E+14  Parms: UU      M1      
 Compute Stats, Diag. #    224  SIvice    vol(   0 ): 3.508E+14  Parms: VV      M1      
 Compute Stats, Diag. #    225  SItaux    vol(   0 ): 3.513E+14  Parms: UU      U1      
 Compute Stats, Diag. #    226  SItauy    vol(   0 ): 3.508E+14  Parms: VV      U1      
 cg2d: Sum(rhs),rhsMax =  -6.53603507691995E+01  3.03358050065303E-01
 Compute Stats, Diag. #    214  SIarea    vol(   0 ): 3.580E+14  Parms: SM      M1      
 Compute Stats, Diag. #    217  SIheff    vol(   0 ): 3.580E+14  Parms: SM      M1      
 Compute Stats, Diag. #    219  SIhsnow   vol(   0 ): 3.580E+14  Parms: SM      M1      
 Compute Stats, Diag. #     83  sIceLoad  vol(   0 ): 3.580E+14  Parms: SM      U1      
 Compute Stats, Diag. #    223  SIuice    vol(   0 ): 3.513E+14  Parms: UU      M1      
 Compute Stats, Diag. #    224  SIvice    vol(   0 ): 3.508E+14  Parms: VV      M1      
 Compute Stats, Diag. #    225  SItaux    vol(   0 ): 3.513E+14  Parms: UU      U1      
 Compute Stats, Diag. #    226  SItauy    vol(   0 ): 3.508E+14  Parms: VV      U1      
 cg2d: Sum(rhs),rhsMax =  -6.54264269572622E+01  3.03241253126798E-01
 Computing Diagnostic #     86  oceQnet      Counter:       4   Parms: SM      U1      
 Computing Diagnostic #     87  oceQsw       Counter:       4   Parms: SM      U1      
 Computing Diagnostic #     84  oceFWflx     Counter:       4   Parms: SM      U1      
 Computing Diagnostic #     85  oceSflux     Counter:       4   Parms: SM      U1      
 Computing Diagnostic #     80  oceTAUX      Counter:       4   Parms: UU      U1      
           Vector  Mate for  oceTAUX      Diagnostic #     81  oceTAUY  exists 
 Computing Diagnostic #     81  oceTAUY      Counter:       4   Parms: VV      U1      
           Vector  Mate for  oceTAUY      Diagnostic #     80  oceTAUX  exists 
 Computing Diagnostic #     26  THETA        Counter:       4   Parms: SMR     MR      
 Computing Diagnostic #     27  SALT         Counter:       4   Parms: SMR     MR      
 Computing Diagnostic #     30  UVEL         Counter:       4   Parms: UUR     MR      
           Vector  Mate for  UVEL         Diagnostic #     31  VVEL     exists 
 Computing Diagnostic #     31  VVEL         Counter:       4   Parms: VVR     MR      
           Vector  Mate for  VVEL         Diagnostic #     30  UVEL     exists 
 Computing Diagnostic #    214  SIarea       Counter:       4   Parms: SM      M1      
 Computing Diagnostic #    217  SIheff       Counter:       4   Parms: SM      M1      
 Computing Diagnostic #    219  SIhsnow      Counter:       4   Parms: SM      M1      
 Computing Diagnostic #     83  sIceLoad     Counter:       4   Parms: SM      U1      
 Computing Diagnostic #    223  SIuice       Counter:       4   Parms: UU      M1      
           Vector  Mate for  SIuice       Diagnostic #    224  SIvice   exists 
 Computing Diagnostic #    224  SIvice       Counter:       4   Parms: VV      M1      
           Vector  Mate for  SIvice       Diagnostic #    223  SIuice   exists 
 Computing Diagnostic #    225  SItaux       Counter:       4   Parms: UU      U1      
           Vector  Mate for  SItaux       Diagnostic #    226  SItauy   exists 
 Computing Diagnostic #    226  SItauy       Counter:       4   Parms: VV      U1      
           Vector  Mate for  SItauy       Diagnostic #    225  SItaux   exists 
 Computing Diagnostic #    285  SIareaN      Counter:       4   Parms: SM      MX      
 Computing Diagnostic #    284  SIheffN      Counter:       4   Parms: SM      MX      
 Computing Diagnostic #    286  SIhsnowN     Counter:       4   Parms: SM      MX      
 Compute Stats, Diag. #    214  SIarea    vol(   0 ): 3.580E+14  Parms: SM      M1      
 Compute Stats, Diag. #    217  SIheff    vol(   0 ): 3.580E+14  Parms: SM      M1      
 Compute Stats, Diag. #    219  SIhsnow   vol(   0 ): 3.580E+14  Parms: SM      M1      
 Compute Stats, Diag. #     83  sIceLoad  vol(   0 ): 3.580E+14  Parms: SM      U1      
 Compute Stats, Diag. #    223  SIuice    vol(   0 ): 3.513E+14  Parms: UU      M1      
 Compute Stats, Diag. #    224  SIvice    vol(   0 ): 3.508E+14  Parms: VV      M1      
 Compute Stats, Diag. #    225  SItaux    vol(   0 ): 3.513E+14  Parms: UU      U1      
 Compute Stats, Diag. #    226  SItauy    vol(   0 ): 3.508E+14  Parms: VV      U1      
 cg2d: Sum(rhs),rhsMax =  -6.54906353864648E+01  3.03114714638717E-01
 Compute Stats, Diag. #    214  SIarea    vol(   0 ): 3.580E+14  Parms: SM      M1      
 Compute Stats, Diag. #    217  SIheff    vol(   0 ): 3.580E+14  Parms: SM      M1      
 Compute Stats, Diag. #    219  SIhsnow   vol(   0 ): 3.580E+14  Parms: SM      M1      
 Compute Stats, Diag. #     83  sIceLoad  vol(   0 ): 3.580E+14  Parms: SM      U1      
 Compute Stats, Diag. #    223  SIuice    vol(   0 ): 3.513E+14  Parms: UU      M1      
 Compute Stats, Diag. #    224  SIvice    vol(   0 ): 3.508E+14  Parms: VV      M1      
 Compute Stats, Diag. #    225  SItaux    vol(   0 ): 3.513E+14  Parms: UU      U1      
 Compute Stats, Diag. #    226  SItauy    vol(   0 ): 3.508E+14  Parms: VV      U1      
 cg2d: Sum(rhs),rhsMax =  -6.55326505948924E+01  3.02979973851261E-01
 Compute Stats, Diag. #    214  SIarea    vol(   0 ): 3.580E+14  Parms: SM      M1      
 Compute Stats, Diag. #    217  SIheff    vol(   0 ): 3.580E+14  Parms: SM      M1      
 Compute Stats, Diag. #    219  SIhsnow   vol(   0 ): 3.580E+14  Parms: SM      M1      
 Compute Stats, Diag. #     83  sIceLoad  vol(   0 ): 3.580E+14  Parms: SM      U1      
 Compute Stats, Diag. #    223  SIuice    vol(   0 ): 3.513E+14  Parms: UU      M1      
 Compute Stats, Diag. #    224  SIvice    vol(   0 ): 3.508E+14  Parms: VV      M1      
 Compute Stats, Diag. #    225  SItaux    vol(   0 ): 3.513E+14  Parms: UU      U1      
 Compute Stats, Diag. #    226  SItauy    vol(   0 ): 3.508E+14  Parms: VV      U1      
 cg2d: Sum(rhs),rhsMax =  -6.55750346267904E+01  3.02835630169624E-01
 Compute Stats, Diag. #    214  SIarea    vol(   0 ): 3.580E+14  Parms: SM      M1      
 Compute Stats, Diag. #    217  SIheff    vol(   0 ): 3.580E+14  Parms: SM      M1      
 Compute Stats, Diag. #    219  SIhsnow   vol(   0 ): 3.580E+14  Parms: SM      M1      
 Compute Stats, Diag. #     83  sIceLoad  vol(   0 ): 3.580E+14  Parms: SM      U1      
 Compute Stats, Diag. #    223  SIuice    vol(   0 ): 3.513E+14  Parms: UU      M1      
 Compute Stats, Diag. #    224  SIvice    vol(   0 ): 3.508E+14  Parms: VV      M1      
 Compute Stats, Diag. #    225  SItaux    vol(   0 ): 3.513E+14  Parms: UU      U1      
 Compute Stats, Diag. #    226  SItauy    vol(   0 ): 3.508E+14  Parms: VV      U1      
 cg2d: Sum(rhs),rhsMax =  -6.56272818895786E+01  3.02683118695649E-01
(PID.TID 0000.0001)      cg2d_init_res =   4.02183929520267E-02
(PID.TID 0000.0001)      cg2d_iters(min,last) =      -1      24
(PID.TID 0000.0001)      cg2d_last_res =   2.56604848933836E-05
(PID.TID 0000.0001) // =======================================================
(PID.TID 0000.0001) // Begin MONITOR dynamic field statistics
(PID.TID 0000.0001) // =======================================================
(PID.TID 0000.0001) %MON time_tsnumber                =                  1440
(PID.TID 0000.0001) %MON time_secondsf                =   1.2960000000000E+06
(PID.TID 0000.0001) %MON dynstat_eta_max              =   1.0187103480537E+00
(PID.TID 0000.0001) %MON dynstat_eta_min              =  -1.9019690196939E+00
(PID.TID 0000.0001) %MON dynstat_eta_mean             =   2.0760005257987E-03
(PID.TID 0000.0001) %MON dynstat_eta_sd               =   6.2915000076273E-01
(PID.TID 0000.0001) %MON dynstat_eta_del2             =   4.8925250024887E-05
(PID.TID 0000.0001) %MON dynstat_uvel_max             =   6.1353827478527E-01
(PID.TID 0000.0001) %MON dynstat_uvel_min             =  -1.0856250376486E+00
(PID.TID 0000.0001) %MON dynstat_uvel_mean            =   1.3186178872332E-03
(PID.TID 0000.0001) %MON dynstat_uvel_sd              =   1.8155225371283E-02
(PID.TID 0000.0001) %MON dynstat_uvel_del2            =   7.1382080597960E-06
(PID.TID 0000.0001) %MON dynstat_vvel_max             =   6.7894401084698E-01
(PID.TID 0000.0001) %MON dynstat_vvel_min             =  -1.2298652226792E+00
(PID.TID 0000.0001) %MON dynstat_vvel_mean            =   1.0211244347112E-03
(PID.TID 0000.0001) %MON dynstat_vvel_sd              =   1.9625007956341E-02
(PID.TID 0000.0001) %MON dynstat_vvel_del2            =   7.3022358452972E-06
(PID.TID 0000.0001) %MON dynstat_wvel_max             =   5.1537668885101E-04
(PID.TID 0000.0001) %MON dynstat_wvel_min             =  -7.8048063011123E-04
(PID.TID 0000.0001) %MON dynstat_wvel_mean            =  -2.1796679710977E-09
(PID.TID 0000.0001) %MON dynstat_wvel_sd              =   1.5570394186812E-05
(PID.TID 0000.0001) %MON dynstat_wvel_del2            =   1.5137214663215E-08
(PID.TID 0000.0001) %MON dynstat_theta_max            =   3.1071722360928E+01
(PID.TID 0000.0001) %MON dynstat_theta_min            =  -2.0392478652245E+00
(PID.TID 0000.0001) %MON dynstat_theta_mean           =   3.5898874857690E+00
(PID.TID 0000.0001) %MON dynstat_theta_sd             =   4.4367821213255E+00
(PID.TID 0000.0001) %MON dynstat_theta_del2           =   8.8705131130026E-05
(PID.TID 0000.0001) %MON dynstat_salt_max             =   4.0711558156295E+01
(PID.TID 0000.0001) %MON dynstat_salt_min             =   7.2222409185730E+00
(PID.TID 0000.0001) %MON dynstat_salt_mean            =   3.4725553019913E+01
(PID.TID 0000.0001) %MON dynstat_salt_sd              =   3.7721200699234E-01
(PID.TID 0000.0001) %MON dynstat_salt_del2            =   3.7347091200470E-05
(PID.TID 0000.0001) %MON dynstat_sst_max              =   3.1071722360928E+01
(PID.TID 0000.0001) %MON dynstat_sst_min              =  -1.8082376357796E+00
(PID.TID 0000.0001) %MON dynstat_sst_mean             =   1.8422454411794E+01
(PID.TID 0000.0001) %MON dynstat_sst_sd               =   1.0339130081602E+01
(PID.TID 0000.0001) %MON dynstat_sst_del2             =   7.8432782347176E-04
(PID.TID 0000.0001) %MON dynstat_sss_max              =   3.9097743919196E+01
(PID.TID 0000.0001) %MON dynstat_sss_min              =   7.2222409185730E+00
(PID.TID 0000.0001) %MON dynstat_sss_mean             =   3.4702539542577E+01
(PID.TID 0000.0001) %MON dynstat_sss_sd               =   1.1940293005516E+00
(PID.TID 0000.0001) %MON dynstat_sss_del2             =   1.1055005590975E-03
(PID.TID 0000.0001) %MON forcing_qnet_max             =   3.6186972656250E+03
(PID.TID 0000.0001) %MON forcing_qnet_min             =  -8.3224725407149E+02
(PID.TID 0000.0001) %MON forcing_qnet_mean            =  -1.8222783914384E+01
(PID.TID 0000.0001) %MON forcing_qnet_sd              =   2.1241019703344E+02
(PID.TID 0000.0001) %MON forcing_qnet_del2            =   3.5190782049465E-01
(PID.TID 0000.0001) %MON forcing_qsw_max              =   0.0000000000000E+00
(PID.TID 0000.0001) %MON forcing_qsw_min              =  -1.0984843664712E+02
(PID.TID 0000.0001) %MON forcing_qsw_mean             =  -2.1756011709657E+01
(PID.TID 0000.0001) %MON forcing_qsw_sd               =   3.0692718884571E+01
(PID.TID 0000.0001) %MON forcing_qsw_del2             =   1.9147472082367E-02
(PID.TID 0000.0001) %MON forcing_empmr_max            =   1.4777289470658E-03
(PID.TID 0000.0001) %MON forcing_empmr_min            =  -8.7800279259682E-02
(PID.TID 0000.0001) %MON forcing_empmr_mean           =  -1.8896416384636E-06
(PID.TID 0000.0001) %MON forcing_empmr_sd             =   3.6522352916430E-04
(PID.TID 0000.0001) %MON forcing_empmr_del2           =   3.7514430476485E-06
(PID.TID 0000.0001) %MON forcing_fu_max               =   1.1544182896614E+00
(PID.TID 0000.0001) %MON forcing_fu_min               =  -9.7037875652313E-01
(PID.TID 0000.0001) %MON forcing_fu_mean              =   8.5820437792937E-03
(PID.TID 0000.0001) %MON forcing_fu_sd                =   1.2945823878176E-01
(PID.TID 0000.0001) %MON forcing_fu_del2              =   1.5454143628957E-04
(PID.TID 0000.0001) %MON forcing_fv_max               =   1.0126384496689E+00
(PID.TID 0000.0001) %MON forcing_fv_min               =  -9.1838359832763E-01
(PID.TID 0000.0001) %MON forcing_fv_mean              =  -4.7646021287508E-03
(PID.TID 0000.0001) %MON forcing_fv_sd                =   1.1162515301762E-01
(PID.TID 0000.0001) %MON forcing_fv_del2              =   1.5365999636405E-04
(PID.TID 0000.0001) %MON trAdv_CFL_u_max              =   1.4373083976469E-02
(PID.TID 0000.0001) %MON trAdv_CFL_v_max              =   1.4493476850356E-02
(PID.TID 0000.0001) %MON trAdv_CFL_w_max              =   2.2962471388955E-02
(PID.TID 0000.0001) %MON advcfl_uvel_max              =   1.2646138784983E-02
(PID.TID 0000.0001) %MON advcfl_vvel_max              =   1.2360117390108E-02
(PID.TID 0000.0001) %MON advcfl_wvel_max              =   2.0323463628582E-02
(PID.TID 0000.0001) %MON advcfl_W_hf_max              =   2.1317092616070E-02
(PID.TID 0000.0001) %MON pe_b_mean                    =   5.2068032592973E-04
(PID.TID 0000.0001) %MON ke_max                       =   8.4429706884989E-01
(PID.TID 0000.0001) %MON ke_mean                      =   3.4599229223743E-04
(PID.TID 0000.0001) %MON ke_vol                       =   1.3349986195845E+18
(PID.TID 0000.0001) %MON vort_r_min                   =  -1.0543647304952E-05
(PID.TID 0000.0001) %MON vort_r_max                   =   1.5390351260660E-05
(PID.TID 0000.0001) %MON vort_a_mean                  =  -1.9727864647440E-05
(PID.TID 0000.0001) %MON vort_a_sd                    =   7.4542973590522E-05
(PID.TID 0000.0001) %MON vort_p_mean                  =  -2.1760521922755E-05
(PID.TID 0000.0001) %MON vort_p_sd                    =   9.7246622089249E-05
(PID.TID 0000.0001) %MON surfExpan_theta_mean         =   6.1080545575697E-08
(PID.TID 0000.0001) %MON surfExpan_salt_mean          =   5.5433488117848E-08
(PID.TID 0000.0001) // =======================================================
(PID.TID 0000.0001) // End MONITOR dynamic field statistics
(PID.TID 0000.0001) // =======================================================
(PID.TID 0000.0001) // =======================================================
(PID.TID 0000.0001) // Begin MONITOR SEAICE statistics
(PID.TID 0000.0001) // =======================================================
(PID.TID 0000.0001) %MON seaice_tsnumber              =                  1440
(PID.TID 0000.0001) %MON seaice_time_sec              =   1.2960000000000E+06
(PID.TID 0000.0001) %MON seaice_uice_max              =   4.0000000000000E-01
(PID.TID 0000.0001) %MON seaice_uice_min              =  -4.0000000000000E-01
(PID.TID 0000.0001) %MON seaice_uice_mean             =  -8.3054598624025E-03
(PID.TID 0000.0001) %MON seaice_uice_sd               =   1.9802383574176E-01
(PID.TID 0000.0001) %MON seaice_uice_del2             =   2.2931571122150E-04
(PID.TID 0000.0001) %MON seaice_vice_max              =   4.0000000000000E-01
(PID.TID 0000.0001) %MON seaice_vice_min              =  -4.0000000000000E-01
(PID.TID 0000.0001) %MON seaice_vice_mean             =  -2.1960776359499E-02
(PID.TID 0000.0001) %MON seaice_vice_sd               =   2.1302038025672E-01
(PID.TID 0000.0001) %MON seaice_vice_del2             =   2.3932563818061E-04
(PID.TID 0000.0001) %MON seaice_area_max              =   9.9999998457497E-01
(PID.TID 0000.0001) %MON seaice_area_min              =   0.0000000000000E+00
(PID.TID 0000.0001) %MON seaice_area_mean             =   6.3740644286537E-02
(PID.TID 0000.0001) %MON seaice_area_sd               =   2.2619714363943E-01
(PID.TID 0000.0001) %MON seaice_area_del2             =   3.5982638276667E-04
(PID.TID 0000.0001) %MON seaice_heff_max              =   2.4845418935467E+01
(PID.TID 0000.0001) %MON seaice_heff_min              =   0.0000000000000E+00
(PID.TID 0000.0001) %MON seaice_heff_mean             =   2.1072623504441E-01
(PID.TID 0000.0001) %MON seaice_heff_sd               =   1.0650748905236E+00
(PID.TID 0000.0001) %MON seaice_heff_del2             =   3.7909608665822E-03
(PID.TID 0000.0001) %MON seaice_hsnow_max             =   8.2064999002469E+00
(PID.TID 0000.0001) %MON seaice_hsnow_min             =   0.0000000000000E+00
(PID.TID 0000.0001) %MON seaice_hsnow_mean            =   2.3838495278222E-02
(PID.TID 0000.0001) %MON seaice_hsnow_sd              =   1.5560082421309E-01
(PID.TID 0000.0001) %MON seaice_hsnow_del2            =   1.2305413866299E-03
(PID.TID 0000.0001) // =======================================================
(PID.TID 0000.0001) // End MONITOR SEAICE statistics
(PID.TID 0000.0001) // =======================================================
 Computing Diagnostic #     86  oceQnet      Counter:       4   Parms: SM      U1      
 Computing Diagnostic #     87  oceQsw       Counter:       4   Parms: SM      U1      
 Computing Diagnostic #     84  oceFWflx     Counter:       4   Parms: SM      U1      
 Computing Diagnostic #     85  oceSflux     Counter:       4   Parms: SM      U1      
 Computing Diagnostic #     80  oceTAUX      Counter:       4   Parms: UU      U1      
           Vector  Mate for  oceTAUX      Diagnostic #     81  oceTAUY  exists 
 Computing Diagnostic #     81  oceTAUY      Counter:       4   Parms: VV      U1      
           Vector  Mate for  oceTAUY      Diagnostic #     80  oceTAUX  exists 
 Computing Diagnostic #     26  THETA        Counter:       4   Parms: SMR     MR      
 Computing Diagnostic #     27  SALT         Counter:       4   Parms: SMR     MR      
 Computing Diagnostic #     30  UVEL         Counter:       4   Parms: UUR     MR      
           Vector  Mate for  UVEL         Diagnostic #     31  VVEL     exists 
 Computing Diagnostic #     31  VVEL         Counter:       4   Parms: VVR     MR      
           Vector  Mate for  VVEL         Diagnostic #     30  UVEL     exists 
 Computing Diagnostic #    214  SIarea       Counter:       4   Parms: SM      M1      
 Computing Diagnostic #    217  SIheff       Counter:       4   Parms: SM      M1      
 Computing Diagnostic #    219  SIhsnow      Counter:       4   Parms: SM      M1      
 Computing Diagnostic #     83  sIceLoad     Counter:       4   Parms: SM      U1      
 Computing Diagnostic #    223  SIuice       Counter:       4   Parms: UU      M1      
           Vector  Mate for  SIuice       Diagnostic #    224  SIvice   exists 
 Computing Diagnostic #    224  SIvice       Counter:       4   Parms: VV      M1      
           Vector  Mate for  SIvice       Diagnostic #    223  SIuice   exists 
 Computing Diagnostic #    225  SItaux       Counter:       4   Parms: UU      U1      
           Vector  Mate for  SItaux       Diagnostic #    226  SItauy   exists 
 Computing Diagnostic #    226  SItauy       Counter:       4   Parms: VV      U1      
           Vector  Mate for  SItauy       Diagnostic #    225  SItaux   exists 
 Computing Diagnostic #    285  SIareaN      Counter:       4   Parms: SM      MX      
 Computing Diagnostic #    284  SIheffN      Counter:       4   Parms: SM      MX      
 Computing Diagnostic #    286  SIhsnowN     Counter:       4   Parms: SM      MX      
 Compute Stats, Diag. #    214  SIarea    vol(   0 ): 3.580E+14  Parms: SM      M1      
 Compute Stats, Diag. #    217  SIheff    vol(   0 ): 3.580E+14  Parms: SM      M1      
 Compute Stats, Diag. #    219  SIhsnow   vol(   0 ): 3.580E+14  Parms: SM      M1      
 Compute Stats, Diag. #     83  sIceLoad  vol(   0 ): 3.580E+14  Parms: SM      U1      
 Compute Stats, Diag. #    223  SIuice    vol(   0 ): 3.513E+14  Parms: UU      M1      
 Compute Stats, Diag. #    224  SIvice    vol(   0 ): 3.508E+14  Parms: VV      M1      
 Compute Stats, Diag. #    225  SItaux    vol(   0 ): 3.513E+14  Parms: UU      U1      
 Compute Stats, Diag. #    226  SItauy    vol(   0 ): 3.508E+14  Parms: VV      U1      
(PID.TID 0000.0001) %CHECKPOINT      1440 0000001440
 cg2d: Sum(rhs),rhsMax =  -6.56610810502450E+01  3.02522672716802E-01
 Computing Diagnostic #     86  oceQnet      Counter:       1   Parms: SM      U1      
 Computing Diagnostic #     87  oceQsw       Counter:       1   Parms: SM      U1      
 Computing Diagnostic #     84  oceFWflx     Counter:       1   Parms: SM      U1      
 Computing Diagnostic #     85  oceSflux     Counter:       1   Parms: SM      U1      
 Computing Diagnostic #     80  oceTAUX      Counter:       1   Parms: UU      U1      
           Vector  Mate for  oceTAUX      Diagnostic #     81  oceTAUY  exists 
 Computing Diagnostic #     81  oceTAUY      Counter:       1   Parms: VV      U1      
           Vector  Mate for  oceTAUY      Diagnostic #     80  oceTAUX  exists 
 Computing Diagnostic #     26  THETA        Counter:       1   Parms: SMR     MR      
 Computing Diagnostic #     27  SALT         Counter:       1   Parms: SMR     MR      
 Computing Diagnostic #     30  UVEL         Counter:       1   Parms: UUR     MR      
           Vector  Mate for  UVEL         Diagnostic #     31  VVEL     exists 
 Computing Diagnostic #     31  VVEL         Counter:       1   Parms: VVR     MR      
           Vector  Mate for  VVEL         Diagnostic #     30  UVEL     exists 
 Computing Diagnostic #    214  SIarea       Counter:       1   Parms: SM      M1      
 Computing Diagnostic #    217  SIheff       Counter:       1   Parms: SM      M1      
 Computing Diagnostic #    219  SIhsnow      Counter:       1   Parms: SM      M1      
 Computing Diagnostic #     83  sIceLoad     Counter:       1   Parms: SM      U1      
 Computing Diagnostic #    223  SIuice       Counter:       1   Parms: UU      M1      
           Vector  Mate for  SIuice       Diagnostic #    224  SIvice   exists 
 Computing Diagnostic #    224  SIvice       Counter:       1   Parms: VV      M1      
           Vector  Mate for  SIvice       Diagnostic #    223  SIuice   exists 
 Computing Diagnostic #    225  SItaux       Counter:       1   Parms: UU      U1      
           Vector  Mate for  SItaux       Diagnostic #    226  SItauy   exists 
 Computing Diagnostic #    226  SItauy       Counter:       1   Parms: VV      U1      
           Vector  Mate for  SItauy       Diagnostic #    225  SItaux   exists 
 Computing Diagnostic #    285  SIareaN      Counter:       1   Parms: SM      MX      
 Computing Diagnostic #    284  SIheffN      Counter:       1   Parms: SM      MX      
 Computing Diagnostic #    286  SIhsnowN     Counter:       1   Parms: SM      MX      
 Compute Stats, Diag. #    214  SIarea    vol(   0 ): 3.580E+14  Parms: SM      M1      
 Compute Stats, Diag. #    217  SIheff    vol(   0 ): 3.580E+14  Parms: SM      M1      
 Compute Stats, Diag. #    219  SIhsnow   vol(   0 ): 3.580E+14  Parms: SM      M1      
 Compute Stats, Diag. #     83  sIceLoad  vol(   0 ): 3.580E+14  Parms: SM      U1      
 Compute Stats, Diag. #    223  SIuice    vol(   0 ): 3.513E+14  Parms: UU      M1      
 Compute Stats, Diag. #    224  SIvice    vol(   0 ): 3.508E+14  Parms: VV      M1      
 Compute Stats, Diag. #    225  SItaux    vol(   0 ): 3.513E+14  Parms: UU      U1      
 Compute Stats, Diag. #    226  SItauy    vol(   0 ): 3.508E+14  Parms: VV      U1      
(PID.TID 0000.0001) DIAGSTATS_CLOSE_IO: close file: iceStDiag.0000000001.txt , unit=    37
(PID.TID 0000.0001) %CHECKPOINT      1441 ckptA
